_audit_creation_date      'Aug. 7, 2023'
_audit_creation_method    'Draft CIF file generated with Atomsk'
 
_chemical_name_common             ?
_chemical_melting_point           ?
_chemical_formula_iupac           'Te13284 Mo6645'
_chemical_formula_moiety          'Te13284 Mo6645'
_chemical_formula_sum             'Te13284 Mo6645'
_chemical_formula_weight          2332692.600
_chemical_compound_source         ?
_chemical_absolute_configuration  ?
_exptl_crystal_description        'EDIT-ENTRY'
_diffrn_measurement_device_type   'EDIT-ENTRY'
 
_space_group_IT_number            1
_space_group_crystal_system       orthorhombic
_symmetry_space_group_name_Hall   'P 1'
_symmetry_space_group_name_H-M    'P 1'
 
loop_
_space_group_symop_operation_xyz
'+x,+y,+z'
 
_cell_length_a                    270.5463
_cell_length_b                    269.8000
_cell_length_c                    106.0000
_cell_angle_alpha                 90.0000
_cell_angle_beta                  90.0000
_cell_angle_gamma                 90.0000
_cell_volume                      7737299.5244
 
loop_
 _atom_site_label
 _atom_site_type_symbol
 _atom_site_fract_x
 _atom_site_fract_y
 _atom_site_fract_z
Te1  Te  0.000370  0.000371  0.500000
Mo1  Mo  0.004158  0.006950  0.482988
Te2  Te  0.000370  0.000371  0.465975
Te3  Te  0.011733  0.006950  0.500000
Mo2  Mo  0.015521  0.000371  0.482988
Te4  Te  0.011733  0.006950  0.465975
Te5  Te  0.000370  0.013529  0.500000
Mo3  Mo  0.004158  0.020107  0.482988
Te6  Te  0.000370  0.013529  0.465975
Te7  Te  0.011733  0.020107  0.500000
Mo4  Mo  0.015521  0.013529  0.482988
Te8  Te  0.011733  0.020107  0.465975
Te9  Te  0.000370  0.026686  0.500000
Mo5  Mo  0.004158  0.033265  0.482988
Te10  Te  0.000370  0.026686  0.465975
Te11  Te  0.011733  0.033265  0.500000
Mo6  Mo  0.015521  0.026686  0.482988
Te12  Te  0.011733  0.033265  0.465975
Te13  Te  0.000370  0.039844  0.500000
Mo7  Mo  0.004158  0.046423  0.482988
Te14  Te  0.000370  0.039844  0.465975
Te15  Te  0.011733  0.046423  0.500000
Mo8  Mo  0.015521  0.039844  0.482988
Te16  Te  0.011733  0.046423  0.465975
Te17  Te  0.023097  0.000371  0.500000
Mo9  Mo  0.026885  0.006950  0.482988
Te18  Te  0.023097  0.000371  0.465975
Te19  Te  0.034461  0.006950  0.500000
Mo10  Mo  0.038249  0.000371  0.482988
Te20  Te  0.034461  0.006950  0.465975
Te21  Te  0.023097  0.013529  0.500000
Mo11  Mo  0.026885  0.020107  0.482988
Te22  Te  0.023097  0.013529  0.465975
Te23  Te  0.034461  0.020107  0.500000
Mo12  Mo  0.038249  0.013529  0.482988
Te24  Te  0.034461  0.020107  0.465975
Te25  Te  0.023097  0.026686  0.500000
Mo13  Mo  0.026885  0.033265  0.482988
Te26  Te  0.023097  0.026686  0.465975
Te27  Te  0.034461  0.033265  0.500000
Mo14  Mo  0.038249  0.026686  0.482988
Te28  Te  0.034461  0.033265  0.465975
Te29  Te  0.023097  0.039844  0.500000
Mo15  Mo  0.026885  0.046423  0.482988
Te30  Te  0.023097  0.039844  0.465975
Te31  Te  0.034461  0.046423  0.500000
Mo16  Mo  0.038249  0.039844  0.482988
Te32  Te  0.034461  0.046423  0.465975
Te33  Te  0.045824  0.000371  0.500000
Mo17  Mo  0.049612  0.006950  0.482988
Te34  Te  0.045824  0.000371  0.465975
Te35  Te  0.057188  0.006950  0.500000
Mo18  Mo  0.060976  0.000371  0.482988
Te36  Te  0.057188  0.006950  0.465975
Te37  Te  0.045824  0.013529  0.500000
Mo19  Mo  0.049612  0.020107  0.482988
Te38  Te  0.045824  0.013529  0.465975
Te39  Te  0.057188  0.020107  0.500000
Mo20  Mo  0.060976  0.013529  0.482988
Te40  Te  0.057188  0.020107  0.465975
Te41  Te  0.045824  0.026686  0.500000
Mo21  Mo  0.049612  0.033265  0.482988
Te42  Te  0.045824  0.026686  0.465975
Te43  Te  0.057188  0.033265  0.500000
Mo22  Mo  0.060976  0.026686  0.482988
Te44  Te  0.057188  0.033265  0.465975
Te45  Te  0.045824  0.039844  0.500000
Mo23  Mo  0.049612  0.046423  0.482988
Te46  Te  0.045824  0.039844  0.465975
Te47  Te  0.057188  0.046423  0.500000
Mo24  Mo  0.060976  0.039844  0.482988
Te48  Te  0.057188  0.046423  0.465975
Te49  Te  0.068552  0.000371  0.500000
Mo25  Mo  0.072339  0.006950  0.482988
Te50  Te  0.068552  0.000371  0.465975
Te51  Te  0.079915  0.006950  0.500000
Mo26  Mo  0.083703  0.000371  0.482988
Te52  Te  0.079915  0.006950  0.465975
Te53  Te  0.068552  0.013529  0.500000
Mo27  Mo  0.072339  0.020107  0.482988
Te54  Te  0.068552  0.013529  0.465975
Te55  Te  0.079915  0.020107  0.500000
Mo28  Mo  0.083703  0.013529  0.482988
Te56  Te  0.079915  0.020107  0.465975
Te57  Te  0.068552  0.026686  0.500000
Mo29  Mo  0.072339  0.033265  0.482988
Te58  Te  0.068552  0.026686  0.465975
Te59  Te  0.079915  0.033265  0.500000
Mo30  Mo  0.083703  0.026686  0.482988
Te60  Te  0.079915  0.033265  0.465975
Te61  Te  0.068552  0.039844  0.500000
Mo31  Mo  0.072339  0.046423  0.482988
Te62  Te  0.068552  0.039844  0.465975
Te63  Te  0.079915  0.046423  0.500000
Mo32  Mo  0.083703  0.039844  0.482988
Te64  Te  0.079915  0.046423  0.465975
Te65  Te  0.091279  0.000371  0.500000
Mo33  Mo  0.095067  0.006950  0.482988
Te66  Te  0.091279  0.000371  0.465975
Te67  Te  0.102642  0.006950  0.500000
Mo34  Mo  0.106430  0.000371  0.482988
Te68  Te  0.102642  0.006950  0.465975
Te69  Te  0.091279  0.013529  0.500000
Mo35  Mo  0.095067  0.020107  0.482988
Te70  Te  0.091279  0.013529  0.465975
Te71  Te  0.102642  0.020107  0.500000
Mo36  Mo  0.106430  0.013529  0.482988
Te72  Te  0.102642  0.020107  0.465975
Te73  Te  0.091279  0.026686  0.500000
Mo37  Mo  0.095067  0.033265  0.482988
Te74  Te  0.091279  0.026686  0.465975
Te75  Te  0.102642  0.033265  0.500000
Mo38  Mo  0.106430  0.026686  0.482988
Te76  Te  0.102642  0.033265  0.465975
Te77  Te  0.091279  0.039844  0.500000
Mo39  Mo  0.095067  0.046423  0.482988
Te78  Te  0.091279  0.039844  0.465975
Te79  Te  0.102642  0.046423  0.500000
Mo40  Mo  0.106430  0.039844  0.482988
Te80  Te  0.102642  0.046423  0.465975
Te81  Te  0.114006  0.000371  0.500000
Mo41  Mo  0.117794  0.006950  0.482988
Te82  Te  0.114006  0.000371  0.465975
Te83  Te  0.125370  0.006950  0.500000
Mo42  Mo  0.129158  0.000371  0.482988
Te84  Te  0.125370  0.006950  0.465975
Te85  Te  0.114006  0.013529  0.500000
Mo43  Mo  0.117794  0.020107  0.482988
Te86  Te  0.114006  0.013529  0.465975
Te87  Te  0.125370  0.020107  0.500000
Mo44  Mo  0.129158  0.013529  0.482988
Te88  Te  0.125370  0.020107  0.465975
Te89  Te  0.114006  0.026686  0.500000
Mo45  Mo  0.117794  0.033265  0.482988
Te90  Te  0.114006  0.026686  0.465975
Te91  Te  0.125370  0.033265  0.500000
Mo46  Mo  0.129158  0.026686  0.482988
Te92  Te  0.125370  0.033265  0.465975
Te93  Te  0.114006  0.039844  0.500000
Mo47  Mo  0.117794  0.046423  0.482988
Te94  Te  0.114006  0.039844  0.465975
Te95  Te  0.125370  0.046423  0.500000
Mo48  Mo  0.129158  0.039844  0.482988
Te96  Te  0.125370  0.046423  0.465975
Te97  Te  0.136733  0.000371  0.500000
Mo49  Mo  0.140521  0.006950  0.482988
Te98  Te  0.136733  0.000371  0.465975
Te99  Te  0.148097  0.006950  0.500000
Mo50  Mo  0.151885  0.000371  0.482988
Te100  Te  0.148097  0.006950  0.465975
Te101  Te  0.136733  0.013529  0.500000
Mo51  Mo  0.140521  0.020107  0.482988
Te102  Te  0.136733  0.013529  0.465975
Te103  Te  0.148097  0.020107  0.500000
Mo52  Mo  0.151885  0.013529  0.482988
Te104  Te  0.148097  0.020107  0.465975
Te105  Te  0.136733  0.026686  0.500000
Mo53  Mo  0.140521  0.033265  0.482988
Te106  Te  0.136733  0.026686  0.465975
Te107  Te  0.148097  0.033265  0.500000
Mo54  Mo  0.151885  0.026686  0.482988
Te108  Te  0.148097  0.033265  0.465975
Te109  Te  0.136733  0.039844  0.500000
Mo55  Mo  0.140521  0.046423  0.482988
Te110  Te  0.136733  0.039844  0.465975
Te111  Te  0.148097  0.046423  0.500000
Mo56  Mo  0.151885  0.039844  0.482988
Te112  Te  0.148097  0.046423  0.465975
Te113  Te  0.159461  0.000371  0.500000
Mo57  Mo  0.163248  0.006950  0.482988
Te114  Te  0.159461  0.000371  0.465975
Te115  Te  0.170824  0.006950  0.500000
Mo58  Mo  0.174612  0.000371  0.482988
Te116  Te  0.170824  0.006950  0.465975
Te117  Te  0.159461  0.013529  0.500000
Mo59  Mo  0.163248  0.020107  0.482988
Te118  Te  0.159461  0.013529  0.465975
Te119  Te  0.170824  0.020107  0.500000
Mo60  Mo  0.174612  0.013529  0.482988
Te120  Te  0.170824  0.020107  0.465975
Te121  Te  0.159461  0.026686  0.500000
Mo61  Mo  0.163248  0.033265  0.482988
Te122  Te  0.159461  0.026686  0.465975
Te123  Te  0.170824  0.033265  0.500000
Mo62  Mo  0.174612  0.026686  0.482988
Te124  Te  0.170824  0.033265  0.465975
Te125  Te  0.159461  0.039844  0.500000
Mo63  Mo  0.163248  0.046423  0.482988
Te126  Te  0.159461  0.039844  0.465975
Te127  Te  0.170824  0.046423  0.500000
Mo64  Mo  0.174612  0.039844  0.482988
Te128  Te  0.170824  0.046423  0.465975
Te129  Te  0.182188  0.000371  0.500000
Mo65  Mo  0.185976  0.006950  0.482988
Te130  Te  0.182188  0.000371  0.465975
Te131  Te  0.193551  0.006950  0.500000
Mo66  Mo  0.197339  0.000371  0.482988
Te132  Te  0.193551  0.006950  0.465975
Te133  Te  0.182188  0.013529  0.500000
Mo67  Mo  0.185976  0.020107  0.482988
Te134  Te  0.182188  0.013529  0.465975
Te135  Te  0.193551  0.020107  0.500000
Mo68  Mo  0.197339  0.013529  0.482988
Te136  Te  0.193551  0.020107  0.465975
Te137  Te  0.182188  0.026686  0.500000
Mo69  Mo  0.185976  0.033265  0.482988
Te138  Te  0.182188  0.026686  0.465975
Te139  Te  0.193551  0.033265  0.500000
Mo70  Mo  0.197339  0.026686  0.482988
Te140  Te  0.193551  0.033265  0.465975
Te141  Te  0.182188  0.039844  0.500000
Mo71  Mo  0.185976  0.046423  0.482988
Te142  Te  0.182188  0.039844  0.465975
Te143  Te  0.193551  0.046423  0.500000
Mo72  Mo  0.197339  0.039844  0.482988
Te144  Te  0.193551  0.046423  0.465975
Te145  Te  0.204915  0.000371  0.500000
Mo73  Mo  0.208703  0.006950  0.482988
Te146  Te  0.204915  0.000371  0.465975
Te147  Te  0.216279  0.006950  0.500000
Mo74  Mo  0.220067  0.000371  0.482988
Te148  Te  0.216279  0.006950  0.465975
Te149  Te  0.204915  0.013529  0.500000
Mo75  Mo  0.208703  0.020107  0.482988
Te150  Te  0.204915  0.013529  0.465975
Te151  Te  0.216279  0.020107  0.500000
Mo76  Mo  0.220067  0.013529  0.482988
Te152  Te  0.216279  0.020107  0.465975
Te153  Te  0.204915  0.026686  0.500000
Mo77  Mo  0.208703  0.033265  0.482988
Te154  Te  0.204915  0.026686  0.465975
Te155  Te  0.216279  0.033265  0.500000
Mo78  Mo  0.220067  0.026686  0.482988
Te156  Te  0.216279  0.033265  0.465975
Te157  Te  0.204915  0.039844  0.500000
Mo79  Mo  0.208703  0.046423  0.482988
Te158  Te  0.204915  0.039844  0.465975
Te159  Te  0.216279  0.046423  0.500000
Mo80  Mo  0.220067  0.039844  0.482988
Te160  Te  0.216279  0.046423  0.465975
Te161  Te  0.227642  0.000371  0.500000
Mo81  Mo  0.231430  0.006950  0.482988
Te162  Te  0.227642  0.000371  0.465975
Te163  Te  0.239006  0.006950  0.500000
Mo82  Mo  0.242794  0.000371  0.482988
Te164  Te  0.239006  0.006950  0.465975
Te165  Te  0.227642  0.013529  0.500000
Mo83  Mo  0.231430  0.020107  0.482988
Te166  Te  0.227642  0.013529  0.465975
Te167  Te  0.239006  0.020107  0.500000
Mo84  Mo  0.242794  0.013529  0.482988
Te168  Te  0.239006  0.020107  0.465975
Te169  Te  0.227642  0.026686  0.500000
Mo85  Mo  0.231430  0.033265  0.482988
Te170  Te  0.227642  0.026686  0.465975
Te171  Te  0.239006  0.033265  0.500000
Mo86  Mo  0.242794  0.026686  0.482988
Te172  Te  0.239006  0.033265  0.465975
Te173  Te  0.227642  0.039844  0.500000
Mo87  Mo  0.231430  0.046423  0.482988
Te174  Te  0.227642  0.039844  0.465975
Te175  Te  0.239006  0.046423  0.500000
Mo88  Mo  0.242794  0.039844  0.482988
Te176  Te  0.239006  0.046423  0.465975
Te177  Te  0.250370  0.000371  0.500000
Mo89  Mo  0.254158  0.006950  0.482988
Te178  Te  0.250370  0.000371  0.465975
Te179  Te  0.261733  0.006950  0.500000
Mo90  Mo  0.265521  0.000371  0.482988
Te180  Te  0.261733  0.006950  0.465975
Te181  Te  0.250370  0.013529  0.500000
Mo91  Mo  0.254158  0.020107  0.482988
Te182  Te  0.250370  0.013529  0.465975
Te183  Te  0.261733  0.020107  0.500000
Mo92  Mo  0.265521  0.013529  0.482988
Te184  Te  0.261733  0.020107  0.465975
Te185  Te  0.250370  0.026686  0.500000
Mo93  Mo  0.254158  0.033265  0.482988
Te186  Te  0.250370  0.026686  0.465975
Te187  Te  0.261733  0.033265  0.500000
Mo94  Mo  0.265521  0.026686  0.482988
Te188  Te  0.261733  0.033265  0.465975
Te189  Te  0.250370  0.039844  0.500000
Mo95  Mo  0.254158  0.046423  0.482988
Te190  Te  0.250370  0.039844  0.465975
Te191  Te  0.261733  0.046423  0.500000
Mo96  Mo  0.265521  0.039844  0.482988
Te192  Te  0.261733  0.046423  0.465975
Te193  Te  0.273097  0.000371  0.500000
Mo97  Mo  0.276885  0.006950  0.482988
Te194  Te  0.273097  0.000371  0.465975
Te195  Te  0.284461  0.006950  0.500000
Mo98  Mo  0.288248  0.000371  0.482988
Te196  Te  0.284461  0.006950  0.465975
Te197  Te  0.273097  0.013529  0.500000
Mo99  Mo  0.276885  0.020107  0.482988
Te198  Te  0.273097  0.013529  0.465975
Te199  Te  0.284461  0.020107  0.500000
Mo100  Mo  0.288248  0.013529  0.482988
Te200  Te  0.284461  0.020107  0.465975
Te201  Te  0.273097  0.026686  0.500000
Mo101  Mo  0.276885  0.033265  0.482988
Te202  Te  0.273097  0.026686  0.465975
Te203  Te  0.284461  0.033265  0.500000
Mo102  Mo  0.288248  0.026686  0.482988
Te204  Te  0.284461  0.033265  0.465975
Te205  Te  0.273097  0.039844  0.500000
Mo103  Mo  0.276885  0.046423  0.482988
Te206  Te  0.273097  0.039844  0.465975
Te207  Te  0.284461  0.046423  0.500000
Mo104  Mo  0.288248  0.039844  0.482988
Te208  Te  0.284461  0.046423  0.465975
Te209  Te  0.295824  0.000371  0.500000
Mo105  Mo  0.299612  0.006950  0.482988
Te210  Te  0.295824  0.000371  0.465975
Te211  Te  0.307188  0.006950  0.500000
Mo106  Mo  0.310976  0.000371  0.482988
Te212  Te  0.307188  0.006950  0.465975
Te213  Te  0.295824  0.013529  0.500000
Mo107  Mo  0.299612  0.020107  0.482988
Te214  Te  0.295824  0.013529  0.465975
Te215  Te  0.307188  0.020107  0.500000
Mo108  Mo  0.310976  0.013529  0.482988
Te216  Te  0.307188  0.020107  0.465975
Te217  Te  0.295824  0.026686  0.500000
Mo109  Mo  0.299612  0.033265  0.482988
Te218  Te  0.295824  0.026686  0.465975
Te219  Te  0.307188  0.033265  0.500000
Mo110  Mo  0.310976  0.026686  0.482988
Te220  Te  0.307188  0.033265  0.465975
Te221  Te  0.295824  0.039844  0.500000
Mo111  Mo  0.299612  0.046423  0.482988
Te222  Te  0.295824  0.039844  0.465975
Te223  Te  0.307188  0.046423  0.500000
Mo112  Mo  0.310976  0.039844  0.482988
Te224  Te  0.307188  0.046423  0.465975
Te225  Te  0.318551  0.000371  0.500000
Mo113  Mo  0.322339  0.006950  0.482988
Te226  Te  0.318551  0.000371  0.465975
Te227  Te  0.329915  0.006950  0.500000
Mo114  Mo  0.333703  0.000371  0.482988
Te228  Te  0.329915  0.006950  0.465975
Te229  Te  0.318551  0.013529  0.500000
Mo115  Mo  0.322339  0.020107  0.482988
Te230  Te  0.318551  0.013529  0.465975
Te231  Te  0.329915  0.020107  0.500000
Mo116  Mo  0.333703  0.013529  0.482988
Te232  Te  0.329915  0.020107  0.465975
Te233  Te  0.318551  0.026686  0.500000
Mo117  Mo  0.322339  0.033265  0.482988
Te234  Te  0.318551  0.026686  0.465975
Te235  Te  0.329915  0.033265  0.500000
Mo118  Mo  0.333703  0.026686  0.482988
Te236  Te  0.329915  0.033265  0.465975
Te237  Te  0.318551  0.039844  0.500000
Mo119  Mo  0.322339  0.046423  0.482988
Te238  Te  0.318551  0.039844  0.465975
Te239  Te  0.329915  0.046423  0.500000
Mo120  Mo  0.333703  0.039844  0.482988
Te240  Te  0.329915  0.046423  0.465975
Te241  Te  0.341279  0.000371  0.500000
Mo121  Mo  0.345067  0.006950  0.482988
Te242  Te  0.341279  0.000371  0.465975
Te243  Te  0.352642  0.006950  0.500000
Mo122  Mo  0.356430  0.000371  0.482988
Te244  Te  0.352642  0.006950  0.465975
Te245  Te  0.341279  0.013529  0.500000
Mo123  Mo  0.345067  0.020107  0.482988
Te246  Te  0.341279  0.013529  0.465975
Te247  Te  0.352642  0.020107  0.500000
Mo124  Mo  0.356430  0.013529  0.482988
Te248  Te  0.352642  0.020107  0.465975
Te249  Te  0.341279  0.026686  0.500000
Mo125  Mo  0.345067  0.033265  0.482988
Te250  Te  0.341279  0.026686  0.465975
Te251  Te  0.352642  0.033265  0.500000
Mo126  Mo  0.356430  0.026686  0.482988
Te252  Te  0.352642  0.033265  0.465975
Te253  Te  0.341279  0.039844  0.500000
Mo127  Mo  0.345067  0.046423  0.482988
Te254  Te  0.341279  0.039844  0.465975
Te255  Te  0.352642  0.046423  0.500000
Mo128  Mo  0.356430  0.039844  0.482988
Te256  Te  0.352642  0.046423  0.465975
Te257  Te  0.364006  0.000371  0.500000
Mo129  Mo  0.367794  0.006950  0.482988
Te258  Te  0.364006  0.000371  0.465975
Te259  Te  0.375370  0.006950  0.500000
Mo130  Mo  0.379158  0.000371  0.482988
Te260  Te  0.375370  0.006950  0.465975
Te261  Te  0.364006  0.013529  0.500000
Mo131  Mo  0.367794  0.020107  0.482988
Te262  Te  0.364006  0.013529  0.465975
Te263  Te  0.375370  0.020107  0.500000
Mo132  Mo  0.379158  0.013529  0.482988
Te264  Te  0.375370  0.020107  0.465975
Te265  Te  0.364006  0.026686  0.500000
Mo133  Mo  0.367794  0.033265  0.482988
Te266  Te  0.364006  0.026686  0.465975
Te267  Te  0.375370  0.033265  0.500000
Mo134  Mo  0.379158  0.026686  0.482988
Te268  Te  0.375370  0.033265  0.465975
Te269  Te  0.364006  0.039844  0.500000
Mo135  Mo  0.367794  0.046423  0.482988
Te270  Te  0.364006  0.039844  0.465975
Te271  Te  0.375370  0.046423  0.500000
Mo136  Mo  0.379158  0.039844  0.482988
Te272  Te  0.375370  0.046423  0.465975
Te273  Te  0.386733  0.000371  0.500000
Mo137  Mo  0.390521  0.006950  0.482988
Te274  Te  0.386733  0.000371  0.465975
Te275  Te  0.398097  0.006950  0.500000
Mo138  Mo  0.401885  0.000371  0.482988
Te276  Te  0.398097  0.006950  0.465975
Te277  Te  0.386733  0.013529  0.500000
Mo139  Mo  0.390521  0.020107  0.482988
Te278  Te  0.386733  0.013529  0.465975
Te279  Te  0.398097  0.020107  0.500000
Mo140  Mo  0.401885  0.013529  0.482988
Te280  Te  0.398097  0.020107  0.465975
Te281  Te  0.386733  0.026686  0.500000
Mo141  Mo  0.390521  0.033265  0.482988
Te282  Te  0.386733  0.026686  0.465975
Te283  Te  0.398097  0.033265  0.500000
Mo142  Mo  0.401885  0.026686  0.482988
Te284  Te  0.398097  0.033265  0.465975
Te285  Te  0.386733  0.039844  0.500000
Mo143  Mo  0.390521  0.046423  0.482988
Te286  Te  0.386733  0.039844  0.465975
Te287  Te  0.398097  0.046423  0.500000
Mo144  Mo  0.401885  0.039844  0.482988
Te288  Te  0.398097  0.046423  0.465975
Te289  Te  0.409461  0.000371  0.500000
Mo145  Mo  0.413248  0.006950  0.482988
Te290  Te  0.409461  0.000371  0.465975
Te291  Te  0.420824  0.006950  0.500000
Mo146  Mo  0.424612  0.000371  0.482988
Te292  Te  0.420824  0.006950  0.465975
Te293  Te  0.409461  0.013529  0.500000
Mo147  Mo  0.413248  0.020107  0.482988
Te294  Te  0.409461  0.013529  0.465975
Te295  Te  0.420824  0.020107  0.500000
Mo148  Mo  0.424612  0.013529  0.482988
Te296  Te  0.420824  0.020107  0.465975
Te297  Te  0.409461  0.026686  0.500000
Mo149  Mo  0.413248  0.033265  0.482988
Te298  Te  0.409461  0.026686  0.465975
Te299  Te  0.420824  0.033265  0.500000
Mo150  Mo  0.424612  0.026686  0.482988
Te300  Te  0.420824  0.033265  0.465975
Te301  Te  0.409461  0.039844  0.500000
Mo151  Mo  0.413248  0.046423  0.482988
Te302  Te  0.409461  0.039844  0.465975
Te303  Te  0.420824  0.046423  0.500000
Mo152  Mo  0.424612  0.039844  0.482988
Te304  Te  0.420824  0.046423  0.465975
Te305  Te  0.432188  0.000371  0.500000
Mo153  Mo  0.435976  0.006950  0.482988
Te306  Te  0.432188  0.000371  0.465975
Te307  Te  0.443552  0.006950  0.500000
Mo154  Mo  0.447339  0.000371  0.482988
Te308  Te  0.443552  0.006950  0.465975
Te309  Te  0.432188  0.013529  0.500000
Mo155  Mo  0.435976  0.020107  0.482988
Te310  Te  0.432188  0.013529  0.465975
Te311  Te  0.443552  0.020107  0.500000
Mo156  Mo  0.447339  0.013529  0.482988
Te312  Te  0.443552  0.020107  0.465975
Te313  Te  0.432188  0.026686  0.500000
Mo157  Mo  0.435976  0.033265  0.482988
Te314  Te  0.432188  0.026686  0.465975
Te315  Te  0.443552  0.033265  0.500000
Mo158  Mo  0.447339  0.026686  0.482988
Te316  Te  0.443552  0.033265  0.465975
Te317  Te  0.432188  0.039844  0.500000
Mo159  Mo  0.435976  0.046423  0.482988
Te318  Te  0.432188  0.039844  0.465975
Te319  Te  0.443552  0.046423  0.500000
Mo160  Mo  0.447339  0.039844  0.482988
Te320  Te  0.443552  0.046423  0.465975
Te321  Te  0.454915  0.000371  0.500000
Mo161  Mo  0.458703  0.006950  0.482988
Te322  Te  0.454915  0.000371  0.465975
Te323  Te  0.466279  0.006950  0.500000
Mo162  Mo  0.470067  0.000371  0.482988
Te324  Te  0.466279  0.006950  0.465975
Te325  Te  0.454915  0.013529  0.500000
Mo163  Mo  0.458703  0.020107  0.482988
Te326  Te  0.454915  0.013529  0.465975
Te327  Te  0.466279  0.020107  0.500000
Mo164  Mo  0.470067  0.013529  0.482988
Te328  Te  0.466279  0.020107  0.465975
Te329  Te  0.454915  0.026686  0.500000
Mo165  Mo  0.458703  0.033265  0.482988
Te330  Te  0.454915  0.026686  0.465975
Te331  Te  0.466279  0.033265  0.500000
Mo166  Mo  0.470067  0.026686  0.482988
Te332  Te  0.466279  0.033265  0.465975
Te333  Te  0.454915  0.039844  0.500000
Mo167  Mo  0.458703  0.046423  0.482988
Te334  Te  0.454915  0.039844  0.465975
Te335  Te  0.466279  0.046423  0.500000
Mo168  Mo  0.470067  0.039844  0.482988
Te336  Te  0.466279  0.046423  0.465975
Te337  Te  0.477642  0.000371  0.500000
Mo169  Mo  0.481430  0.006950  0.482988
Te338  Te  0.477642  0.000371  0.465975
Te339  Te  0.489006  0.006950  0.500000
Mo170  Mo  0.492794  0.000371  0.482988
Te340  Te  0.489006  0.006950  0.465975
Te341  Te  0.477642  0.013529  0.500000
Mo171  Mo  0.481430  0.020107  0.482988
Te342  Te  0.477642  0.013529  0.465975
Te343  Te  0.489006  0.020107  0.500000
Mo172  Mo  0.492794  0.013529  0.482988
Te344  Te  0.489006  0.020107  0.465975
Te345  Te  0.477642  0.026686  0.500000
Mo173  Mo  0.481430  0.033265  0.482988
Te346  Te  0.477642  0.026686  0.465975
Te347  Te  0.489006  0.033265  0.500000
Mo174  Mo  0.492794  0.026686  0.482988
Te348  Te  0.489006  0.033265  0.465975
Te349  Te  0.477642  0.039844  0.500000
Mo175  Mo  0.481430  0.046423  0.482988
Te350  Te  0.477642  0.039844  0.465975
Te351  Te  0.489006  0.046423  0.500000
Mo176  Mo  0.492794  0.039844  0.482988
Te352  Te  0.489006  0.046423  0.465975
Te353  Te  0.500370  0.000371  0.500000
Mo177  Mo  0.504158  0.006950  0.482988
Te354  Te  0.500370  0.000371  0.465975
Te355  Te  0.511733  0.006950  0.500000
Mo178  Mo  0.515521  0.000371  0.482988
Te356  Te  0.511733  0.006950  0.465975
Te357  Te  0.500370  0.013529  0.500000
Mo179  Mo  0.504158  0.020107  0.482988
Te358  Te  0.500370  0.013529  0.465975
Te359  Te  0.511733  0.020107  0.500000
Mo180  Mo  0.515521  0.013529  0.482988
Te360  Te  0.511733  0.020107  0.465975
Te361  Te  0.500370  0.026686  0.500000
Mo181  Mo  0.504158  0.033265  0.482988
Te362  Te  0.500370  0.026686  0.465975
Te363  Te  0.511733  0.033265  0.500000
Mo182  Mo  0.515521  0.026686  0.482988
Te364  Te  0.511733  0.033265  0.465975
Te365  Te  0.500370  0.039844  0.500000
Mo183  Mo  0.504158  0.046423  0.482988
Te366  Te  0.500370  0.039844  0.465975
Te367  Te  0.511733  0.046423  0.500000
Mo184  Mo  0.515521  0.039844  0.482988
Te368  Te  0.511733  0.046423  0.465975
Te369  Te  0.523097  0.000371  0.500000
Mo185  Mo  0.526885  0.006950  0.482988
Te370  Te  0.523097  0.000371  0.465975
Te371  Te  0.534461  0.006950  0.500000
Mo186  Mo  0.538249  0.000371  0.482988
Te372  Te  0.534461  0.006950  0.465975
Te373  Te  0.523097  0.013529  0.500000
Mo187  Mo  0.526885  0.020107  0.482988
Te374  Te  0.523097  0.013529  0.465975
Te375  Te  0.534461  0.020107  0.500000
Mo188  Mo  0.538249  0.013529  0.482988
Te376  Te  0.534461  0.020107  0.465975
Te377  Te  0.523097  0.026686  0.500000
Mo189  Mo  0.526885  0.033265  0.482988
Te378  Te  0.523097  0.026686  0.465975
Te379  Te  0.534461  0.033265  0.500000
Mo190  Mo  0.538249  0.026686  0.482988
Te380  Te  0.534461  0.033265  0.465975
Te381  Te  0.523097  0.039844  0.500000
Mo191  Mo  0.526885  0.046423  0.482988
Te382  Te  0.523097  0.039844  0.465975
Te383  Te  0.534461  0.046423  0.500000
Mo192  Mo  0.538249  0.039844  0.482988
Te384  Te  0.534461  0.046423  0.465975
Te385  Te  0.545824  0.000371  0.500000
Mo193  Mo  0.549612  0.006950  0.482988
Te386  Te  0.545824  0.000371  0.465975
Te387  Te  0.557188  0.006950  0.500000
Mo194  Mo  0.560976  0.000371  0.482988
Te388  Te  0.557188  0.006950  0.465975
Te389  Te  0.545824  0.013529  0.500000
Mo195  Mo  0.549612  0.020107  0.482988
Te390  Te  0.545824  0.013529  0.465975
Te391  Te  0.557188  0.020107  0.500000
Mo196  Mo  0.560976  0.013529  0.482988
Te392  Te  0.557188  0.020107  0.465975
Te393  Te  0.545824  0.026686  0.500000
Mo197  Mo  0.549612  0.033265  0.482988
Te394  Te  0.545824  0.026686  0.465975
Te395  Te  0.557188  0.033265  0.500000
Mo198  Mo  0.560976  0.026686  0.482988
Te396  Te  0.557188  0.033265  0.465975
Te397  Te  0.545824  0.039844  0.500000
Mo199  Mo  0.549612  0.046423  0.482988
Te398  Te  0.545824  0.039844  0.465975
Te399  Te  0.557188  0.046423  0.500000
Mo200  Mo  0.560976  0.039844  0.482988
Te400  Te  0.557188  0.046423  0.465975
Te401  Te  0.568552  0.000371  0.500000
Mo201  Mo  0.572339  0.006950  0.482988
Te402  Te  0.568552  0.000371  0.465975
Te403  Te  0.579915  0.006950  0.500000
Mo202  Mo  0.583703  0.000371  0.482988
Te404  Te  0.579915  0.006950  0.465975
Te405  Te  0.568552  0.013529  0.500000
Mo203  Mo  0.572339  0.020107  0.482988
Te406  Te  0.568552  0.013529  0.465975
Te407  Te  0.579915  0.020107  0.500000
Mo204  Mo  0.583703  0.013529  0.482988
Te408  Te  0.579915  0.020107  0.465975
Te409  Te  0.568552  0.026686  0.500000
Mo205  Mo  0.572339  0.033265  0.482988
Te410  Te  0.568552  0.026686  0.465975
Te411  Te  0.579915  0.033265  0.500000
Mo206  Mo  0.583703  0.026686  0.482988
Te412  Te  0.579915  0.033265  0.465975
Te413  Te  0.568552  0.039844  0.500000
Mo207  Mo  0.572339  0.046423  0.482988
Te414  Te  0.568552  0.039844  0.465975
Te415  Te  0.579915  0.046423  0.500000
Mo208  Mo  0.583703  0.039844  0.482988
Te416  Te  0.579915  0.046423  0.465975
Te417  Te  0.591279  0.000371  0.500000
Mo209  Mo  0.595067  0.006950  0.482988
Te418  Te  0.591279  0.000371  0.465975
Te419  Te  0.602642  0.006950  0.500000
Mo210  Mo  0.606430  0.000371  0.482988
Te420  Te  0.602642  0.006950  0.465975
Te421  Te  0.591279  0.013529  0.500000
Mo211  Mo  0.595067  0.020107  0.482988
Te422  Te  0.591279  0.013529  0.465975
Te423  Te  0.602642  0.020107  0.500000
Mo212  Mo  0.606430  0.013529  0.482988
Te424  Te  0.602642  0.020107  0.465975
Te425  Te  0.591279  0.026686  0.500000
Mo213  Mo  0.595067  0.033265  0.482988
Te426  Te  0.591279  0.026686  0.465975
Te427  Te  0.602642  0.033265  0.500000
Mo214  Mo  0.606430  0.026686  0.482988
Te428  Te  0.602642  0.033265  0.465975
Te429  Te  0.591279  0.039844  0.500000
Mo215  Mo  0.595067  0.046423  0.482988
Te430  Te  0.591279  0.039844  0.465975
Te431  Te  0.602642  0.046423  0.500000
Mo216  Mo  0.606430  0.039844  0.482988
Te432  Te  0.602642  0.046423  0.465975
Te433  Te  0.614006  0.000371  0.500000
Mo217  Mo  0.617794  0.006950  0.482988
Te434  Te  0.614006  0.000371  0.465975
Te435  Te  0.625370  0.006950  0.500000
Mo218  Mo  0.629158  0.000371  0.482988
Te436  Te  0.625370  0.006950  0.465975
Te437  Te  0.614006  0.013529  0.500000
Mo219  Mo  0.617794  0.020107  0.482988
Te438  Te  0.614006  0.013529  0.465975
Te439  Te  0.625370  0.020107  0.500000
Mo220  Mo  0.629158  0.013529  0.482988
Te440  Te  0.625370  0.020107  0.465975
Te441  Te  0.614006  0.026686  0.500000
Mo221  Mo  0.617794  0.033265  0.482988
Te442  Te  0.614006  0.026686  0.465975
Te443  Te  0.625370  0.033265  0.500000
Mo222  Mo  0.629158  0.026686  0.482988
Te444  Te  0.625370  0.033265  0.465975
Te445  Te  0.614006  0.039844  0.500000
Mo223  Mo  0.617794  0.046423  0.482988
Te446  Te  0.614006  0.039844  0.465975
Te447  Te  0.625370  0.046423  0.500000
Mo224  Mo  0.629158  0.039844  0.482988
Te448  Te  0.625370  0.046423  0.465975
Te449  Te  0.636733  0.000371  0.500000
Mo225  Mo  0.640521  0.006950  0.482988
Te450  Te  0.636733  0.000371  0.465975
Te451  Te  0.648097  0.006950  0.500000
Mo226  Mo  0.651885  0.000371  0.482988
Te452  Te  0.648097  0.006950  0.465975
Te453  Te  0.636733  0.013529  0.500000
Mo227  Mo  0.640521  0.020107  0.482988
Te454  Te  0.636733  0.013529  0.465975
Te455  Te  0.648097  0.020107  0.500000
Mo228  Mo  0.651885  0.013529  0.482988
Te456  Te  0.648097  0.020107  0.465975
Te457  Te  0.636733  0.026686  0.500000
Mo229  Mo  0.640521  0.033265  0.482988
Te458  Te  0.636733  0.026686  0.465975
Te459  Te  0.648097  0.033265  0.500000
Mo230  Mo  0.651885  0.026686  0.482988
Te460  Te  0.648097  0.033265  0.465975
Te461  Te  0.636733  0.039844  0.500000
Mo231  Mo  0.640521  0.046423  0.482988
Te462  Te  0.636733  0.039844  0.465975
Te463  Te  0.648097  0.046423  0.500000
Mo232  Mo  0.651885  0.039844  0.482988
Te464  Te  0.648097  0.046423  0.465975
Te465  Te  0.659461  0.000371  0.500000
Mo233  Mo  0.663248  0.006950  0.482988
Te466  Te  0.659461  0.000371  0.465975
Te467  Te  0.670824  0.006950  0.500000
Mo234  Mo  0.674612  0.000371  0.482988
Te468  Te  0.670824  0.006950  0.465975
Te469  Te  0.659461  0.013529  0.500000
Mo235  Mo  0.663248  0.020107  0.482988
Te470  Te  0.659461  0.013529  0.465975
Te471  Te  0.670824  0.020107  0.500000
Mo236  Mo  0.674612  0.013529  0.482988
Te472  Te  0.670824  0.020107  0.465975
Te473  Te  0.659461  0.026686  0.500000
Mo237  Mo  0.663248  0.033265  0.482988
Te474  Te  0.659461  0.026686  0.465975
Te475  Te  0.670824  0.033265  0.500000
Mo238  Mo  0.674612  0.026686  0.482988
Te476  Te  0.670824  0.033265  0.465975
Te477  Te  0.659461  0.039844  0.500000
Mo239  Mo  0.663248  0.046423  0.482988
Te478  Te  0.659461  0.039844  0.465975
Te479  Te  0.670824  0.046423  0.500000
Mo240  Mo  0.674612  0.039844  0.482988
Te480  Te  0.670824  0.046423  0.465975
Te481  Te  0.682188  0.000371  0.500000
Mo241  Mo  0.685976  0.006950  0.482988
Te482  Te  0.682188  0.000371  0.465975
Te483  Te  0.693551  0.006950  0.500000
Mo242  Mo  0.697339  0.000371  0.482988
Te484  Te  0.693551  0.006950  0.465975
Te485  Te  0.682188  0.013529  0.500000
Mo243  Mo  0.685976  0.020107  0.482988
Te486  Te  0.682188  0.013529  0.465975
Te487  Te  0.693551  0.020107  0.500000
Mo244  Mo  0.697339  0.013529  0.482988
Te488  Te  0.693551  0.020107  0.465975
Te489  Te  0.682188  0.026686  0.500000
Mo245  Mo  0.685976  0.033265  0.482988
Te490  Te  0.682188  0.026686  0.465975
Te491  Te  0.693551  0.033265  0.500000
Mo246  Mo  0.697339  0.026686  0.482988
Te492  Te  0.693551  0.033265  0.465975
Te493  Te  0.682188  0.039844  0.500000
Mo247  Mo  0.685976  0.046423  0.482988
Te494  Te  0.682188  0.039844  0.465975
Te495  Te  0.693551  0.046423  0.500000
Mo248  Mo  0.697339  0.039844  0.482988
Te496  Te  0.693551  0.046423  0.465975
Te497  Te  0.704915  0.000371  0.500000
Mo249  Mo  0.708703  0.006950  0.482988
Te498  Te  0.704915  0.000371  0.465975
Te499  Te  0.716279  0.006950  0.500000
Mo250  Mo  0.720067  0.000371  0.482988
Te500  Te  0.716279  0.006950  0.465975
Te501  Te  0.704915  0.013529  0.500000
Mo251  Mo  0.708703  0.020107  0.482988
Te502  Te  0.704915  0.013529  0.465975
Te503  Te  0.716279  0.020107  0.500000
Mo252  Mo  0.720067  0.013529  0.482988
Te504  Te  0.716279  0.020107  0.465975
Te505  Te  0.704915  0.026686  0.500000
Mo253  Mo  0.708703  0.033265  0.482988
Te506  Te  0.704915  0.026686  0.465975
Te507  Te  0.716279  0.033265  0.500000
Mo254  Mo  0.720067  0.026686  0.482988
Te508  Te  0.716279  0.033265  0.465975
Te509  Te  0.704915  0.039844  0.500000
Mo255  Mo  0.708703  0.046423  0.482988
Te510  Te  0.704915  0.039844  0.465975
Te511  Te  0.716279  0.046423  0.500000
Mo256  Mo  0.720067  0.039844  0.482988
Te512  Te  0.716279  0.046423  0.465975
Te513  Te  0.727642  0.000371  0.500000
Mo257  Mo  0.731430  0.006950  0.482988
Te514  Te  0.727642  0.000371  0.465975
Te515  Te  0.739006  0.006950  0.500000
Mo258  Mo  0.742794  0.000371  0.482988
Te516  Te  0.739006  0.006950  0.465975
Te517  Te  0.727642  0.013529  0.500000
Mo259  Mo  0.731430  0.020107  0.482988
Te518  Te  0.727642  0.013529  0.465975
Te519  Te  0.739006  0.020107  0.500000
Mo260  Mo  0.742794  0.013529  0.482988
Te520  Te  0.739006  0.020107  0.465975
Te521  Te  0.727642  0.026686  0.500000
Mo261  Mo  0.731430  0.033265  0.482988
Te522  Te  0.727642  0.026686  0.465975
Te523  Te  0.739006  0.033265  0.500000
Mo262  Mo  0.742794  0.026686  0.482988
Te524  Te  0.739006  0.033265  0.465975
Te525  Te  0.727642  0.039844  0.500000
Mo263  Mo  0.731430  0.046423  0.482988
Te526  Te  0.727642  0.039844  0.465975
Te527  Te  0.739006  0.046423  0.500000
Mo264  Mo  0.742794  0.039844  0.482988
Te528  Te  0.739006  0.046423  0.465975
Te529  Te  0.750370  0.000371  0.500000
Mo265  Mo  0.754158  0.006950  0.482988
Te530  Te  0.750370  0.000371  0.465975
Te531  Te  0.761733  0.006950  0.500000
Mo266  Mo  0.765521  0.000371  0.482988
Te532  Te  0.761733  0.006950  0.465975
Te533  Te  0.750370  0.013529  0.500000
Mo267  Mo  0.754158  0.020107  0.482988
Te534  Te  0.750370  0.013529  0.465975
Te535  Te  0.761733  0.020107  0.500000
Mo268  Mo  0.765521  0.013529  0.482988
Te536  Te  0.761733  0.020107  0.465975
Te537  Te  0.750370  0.026686  0.500000
Mo269  Mo  0.754158  0.033265  0.482988
Te538  Te  0.750370  0.026686  0.465975
Te539  Te  0.761733  0.033265  0.500000
Mo270  Mo  0.765521  0.026686  0.482988
Te540  Te  0.761733  0.033265  0.465975
Te541  Te  0.750370  0.039844  0.500000
Mo271  Mo  0.754158  0.046423  0.482988
Te542  Te  0.750370  0.039844  0.465975
Te543  Te  0.761733  0.046423  0.500000
Mo272  Mo  0.765521  0.039844  0.482988
Te544  Te  0.761733  0.046423  0.465975
Te545  Te  0.773097  0.000371  0.500000
Mo273  Mo  0.776885  0.006950  0.482988
Te546  Te  0.773097  0.000371  0.465975
Te547  Te  0.784461  0.006950  0.500000
Mo274  Mo  0.788248  0.000371  0.482988
Te548  Te  0.784461  0.006950  0.465975
Te549  Te  0.773097  0.013529  0.500000
Mo275  Mo  0.776885  0.020107  0.482988
Te550  Te  0.773097  0.013529  0.465975
Te551  Te  0.784461  0.020107  0.500000
Mo276  Mo  0.788248  0.013529  0.482988
Te552  Te  0.784461  0.020107  0.465975
Te553  Te  0.773097  0.026686  0.500000
Mo277  Mo  0.776885  0.033265  0.482988
Te554  Te  0.773097  0.026686  0.465975
Te555  Te  0.784461  0.033265  0.500000
Mo278  Mo  0.788248  0.026686  0.482988
Te556  Te  0.784461  0.033265  0.465975
Te557  Te  0.773097  0.039844  0.500000
Mo279  Mo  0.776885  0.046423  0.482988
Te558  Te  0.773097  0.039844  0.465975
Te559  Te  0.784461  0.046423  0.500000
Mo280  Mo  0.788248  0.039844  0.482988
Te560  Te  0.784461  0.046423  0.465975
Te561  Te  0.795824  0.000371  0.500000
Mo281  Mo  0.799612  0.006950  0.482988
Te562  Te  0.795824  0.000371  0.465975
Te563  Te  0.807188  0.006950  0.500000
Mo282  Mo  0.810976  0.000371  0.482988
Te564  Te  0.807188  0.006950  0.465975
Te565  Te  0.795824  0.013529  0.500000
Mo283  Mo  0.799612  0.020107  0.482988
Te566  Te  0.795824  0.013529  0.465975
Te567  Te  0.807188  0.020107  0.500000
Mo284  Mo  0.810976  0.013529  0.482988
Te568  Te  0.807188  0.020107  0.465975
Te569  Te  0.795824  0.026686  0.500000
Mo285  Mo  0.799612  0.033265  0.482988
Te570  Te  0.795824  0.026686  0.465975
Te571  Te  0.807188  0.033265  0.500000
Mo286  Mo  0.810976  0.026686  0.482988
Te572  Te  0.807188  0.033265  0.465975
Te573  Te  0.795824  0.039844  0.500000
Mo287  Mo  0.799612  0.046423  0.482988
Te574  Te  0.795824  0.039844  0.465975
Te575  Te  0.807188  0.046423  0.500000
Mo288  Mo  0.810976  0.039844  0.482988
Te576  Te  0.807188  0.046423  0.465975
Te577  Te  0.818551  0.000371  0.500000
Mo289  Mo  0.822339  0.006950  0.482988
Te578  Te  0.818551  0.000371  0.465975
Te579  Te  0.829915  0.006950  0.500000
Mo290  Mo  0.833703  0.000371  0.482988
Te580  Te  0.829915  0.006950  0.465975
Te581  Te  0.818551  0.013529  0.500000
Mo291  Mo  0.822339  0.020107  0.482988
Te582  Te  0.818551  0.013529  0.465975
Te583  Te  0.829915  0.020107  0.500000
Mo292  Mo  0.833703  0.013529  0.482988
Te584  Te  0.829915  0.020107  0.465975
Te585  Te  0.818551  0.026686  0.500000
Mo293  Mo  0.822339  0.033265  0.482988
Te586  Te  0.818551  0.026686  0.465975
Te587  Te  0.829915  0.033265  0.500000
Mo294  Mo  0.833703  0.026686  0.482988
Te588  Te  0.829915  0.033265  0.465975
Te589  Te  0.818551  0.039844  0.500000
Mo295  Mo  0.822339  0.046423  0.482988
Te590  Te  0.818551  0.039844  0.465975
Te591  Te  0.829915  0.046423  0.500000
Mo296  Mo  0.833703  0.039844  0.482988
Te592  Te  0.829915  0.046423  0.465975
Te593  Te  0.841279  0.000371  0.500000
Mo297  Mo  0.845067  0.006950  0.482988
Te594  Te  0.841279  0.000371  0.465975
Te595  Te  0.852642  0.006950  0.500000
Mo298  Mo  0.856430  0.000371  0.482988
Te596  Te  0.852642  0.006950  0.465975
Te597  Te  0.841279  0.013529  0.500000
Mo299  Mo  0.845067  0.020107  0.482988
Te598  Te  0.841279  0.013529  0.465975
Te599  Te  0.852642  0.020107  0.500000
Mo300  Mo  0.856430  0.013529  0.482988
Te600  Te  0.852642  0.020107  0.465975
Te601  Te  0.841279  0.026686  0.500000
Mo301  Mo  0.845067  0.033265  0.482988
Te602  Te  0.841279  0.026686  0.465975
Te603  Te  0.852642  0.033265  0.500000
Mo302  Mo  0.856430  0.026686  0.482988
Te604  Te  0.852642  0.033265  0.465975
Te605  Te  0.841279  0.039844  0.500000
Mo303  Mo  0.845067  0.046423  0.482988
Te606  Te  0.841279  0.039844  0.465975
Te607  Te  0.852642  0.046423  0.500000
Mo304  Mo  0.856430  0.039844  0.482988
Te608  Te  0.852642  0.046423  0.465975
Te609  Te  0.864006  0.000371  0.500000
Mo305  Mo  0.867794  0.006950  0.482988
Te610  Te  0.864006  0.000371  0.465975
Te611  Te  0.875370  0.006950  0.500000
Mo306  Mo  0.879158  0.000371  0.482988
Te612  Te  0.875370  0.006950  0.465975
Te613  Te  0.864006  0.013529  0.500000
Mo307  Mo  0.867794  0.020107  0.482988
Te614  Te  0.864006  0.013529  0.465975
Te615  Te  0.875370  0.020107  0.500000
Mo308  Mo  0.879158  0.013529  0.482988
Te616  Te  0.875370  0.020107  0.465975
Te617  Te  0.864006  0.026686  0.500000
Mo309  Mo  0.867794  0.033265  0.482988
Te618  Te  0.864006  0.026686  0.465975
Te619  Te  0.875370  0.033265  0.500000
Mo310  Mo  0.879158  0.026686  0.482988
Te620  Te  0.875370  0.033265  0.465975
Te621  Te  0.864006  0.039844  0.500000
Mo311  Mo  0.867794  0.046423  0.482988
Te622  Te  0.864006  0.039844  0.465975
Te623  Te  0.875370  0.046423  0.500000
Mo312  Mo  0.879158  0.039844  0.482988
Te624  Te  0.875370  0.046423  0.465975
Te625  Te  0.886733  0.000371  0.500000
Mo313  Mo  0.890521  0.006950  0.482988
Te626  Te  0.886733  0.000371  0.465975
Te627  Te  0.898097  0.006950  0.500000
Mo314  Mo  0.901885  0.000371  0.482988
Te628  Te  0.898097  0.006950  0.465975
Te629  Te  0.886733  0.013529  0.500000
Mo315  Mo  0.890521  0.020107  0.482988
Te630  Te  0.886733  0.013529  0.465975
Te631  Te  0.898097  0.020107  0.500000
Mo316  Mo  0.901885  0.013529  0.482988
Te632  Te  0.898097  0.020107  0.465975
Te633  Te  0.886733  0.026686  0.500000
Mo317  Mo  0.890521  0.033265  0.482988
Te634  Te  0.886733  0.026686  0.465975
Te635  Te  0.898097  0.033265  0.500000
Mo318  Mo  0.901885  0.026686  0.482988
Te636  Te  0.898097  0.033265  0.465975
Te637  Te  0.886733  0.039844  0.500000
Mo319  Mo  0.890521  0.046423  0.482988
Te638  Te  0.886733  0.039844  0.465975
Te639  Te  0.898097  0.046423  0.500000
Mo320  Mo  0.901885  0.039844  0.482988
Te640  Te  0.898097  0.046423  0.465975
Te641  Te  0.909461  0.000371  0.500000
Mo321  Mo  0.913248  0.006950  0.482988
Te642  Te  0.909461  0.000371  0.465975
Te643  Te  0.920824  0.006950  0.500000
Mo322  Mo  0.924612  0.000371  0.482988
Te644  Te  0.920824  0.006950  0.465975
Te645  Te  0.909461  0.013529  0.500000
Mo323  Mo  0.913248  0.020107  0.482988
Te646  Te  0.909461  0.013529  0.465975
Te647  Te  0.920824  0.020107  0.500000
Mo324  Mo  0.924612  0.013529  0.482988
Te648  Te  0.920824  0.020107  0.465975
Te649  Te  0.909461  0.026686  0.500000
Mo325  Mo  0.913248  0.033265  0.482988
Te650  Te  0.909461  0.026686  0.465975
Te651  Te  0.920824  0.033265  0.500000
Mo326  Mo  0.924612  0.026686  0.482988
Te652  Te  0.920824  0.033265  0.465975
Te653  Te  0.909461  0.039844  0.500000
Mo327  Mo  0.913248  0.046423  0.482988
Te654  Te  0.909461  0.039844  0.465975
Te655  Te  0.920824  0.046423  0.500000
Mo328  Mo  0.924612  0.039844  0.482988
Te656  Te  0.920824  0.046423  0.465975
Te657  Te  0.932188  0.000371  0.500000
Mo329  Mo  0.935976  0.006950  0.482988
Te658  Te  0.932188  0.000371  0.465975
Te659  Te  0.943552  0.006950  0.500000
Mo330  Mo  0.947339  0.000371  0.482988
Te660  Te  0.943552  0.006950  0.465975
Te661  Te  0.932188  0.013529  0.500000
Mo331  Mo  0.935976  0.020107  0.482988
Te662  Te  0.932188  0.013529  0.465975
Te663  Te  0.943552  0.020107  0.500000
Mo332  Mo  0.947339  0.013529  0.482988
Te664  Te  0.943552  0.020107  0.465975
Te665  Te  0.932188  0.026686  0.500000
Mo333  Mo  0.935976  0.033265  0.482988
Te666  Te  0.932188  0.026686  0.465975
Te667  Te  0.943552  0.033265  0.500000
Mo334  Mo  0.947339  0.026686  0.482988
Te668  Te  0.943552  0.033265  0.465975
Te669  Te  0.932188  0.039844  0.500000
Mo335  Mo  0.935976  0.046423  0.482988
Te670  Te  0.932188  0.039844  0.465975
Te671  Te  0.943552  0.046423  0.500000
Mo336  Mo  0.947339  0.039844  0.482988
Te672  Te  0.943552  0.046423  0.465975
Te673  Te  0.954915  0.000371  0.500000
Mo337  Mo  0.958703  0.006950  0.482988
Te674  Te  0.954915  0.000371  0.465975
Te675  Te  0.966279  0.006950  0.500000
Mo338  Mo  0.970067  0.000371  0.482988
Te676  Te  0.966279  0.006950  0.465975
Te677  Te  0.954915  0.013529  0.500000
Mo339  Mo  0.958703  0.020107  0.482988
Te678  Te  0.954915  0.013529  0.465975
Te679  Te  0.966279  0.020107  0.500000
Mo340  Mo  0.970067  0.013529  0.482988
Te680  Te  0.966279  0.020107  0.465975
Te681  Te  0.954915  0.026686  0.500000
Mo341  Mo  0.958703  0.033265  0.482988
Te682  Te  0.954915  0.026686  0.465975
Te683  Te  0.966279  0.033265  0.500000
Mo342  Mo  0.970067  0.026686  0.482988
Te684  Te  0.966279  0.033265  0.465975
Te685  Te  0.954915  0.039844  0.500000
Mo343  Mo  0.958703  0.046423  0.482988
Te686  Te  0.954915  0.039844  0.465975
Te687  Te  0.966279  0.046423  0.500000
Mo344  Mo  0.970067  0.039844  0.482988
Te688  Te  0.966279  0.046423  0.465975
Te689  Te  0.977642  0.000371  0.500000
Mo345  Mo  0.981430  0.006950  0.482988
Te690  Te  0.977642  0.000371  0.465975
Te691  Te  0.989006  0.006950  0.500000
Mo346  Mo  0.992794  0.000371  0.482988
Te692  Te  0.989006  0.006950  0.465975
Te693  Te  0.977642  0.013529  0.500000
Mo347  Mo  0.981430  0.020107  0.482988
Te694  Te  0.977642  0.013529  0.465975
Te695  Te  0.989006  0.020107  0.500000
Mo348  Mo  0.992794  0.013529  0.482988
Te696  Te  0.989006  0.020107  0.465975
Te697  Te  0.977642  0.026686  0.500000
Mo349  Mo  0.981430  0.033265  0.482988
Te698  Te  0.977642  0.026686  0.465975
Te699  Te  0.989006  0.033265  0.500000
Mo350  Mo  0.992794  0.026686  0.482988
Te700  Te  0.989006  0.033265  0.465975
Te701  Te  0.977642  0.039844  0.500000
Mo351  Mo  0.981430  0.046423  0.482988
Te702  Te  0.977642  0.039844  0.465975
Te703  Te  0.989006  0.046423  0.500000
Mo352  Mo  0.992794  0.039844  0.482988
Te704  Te  0.989006  0.046423  0.465975
Te705  Te  0.000370  0.053002  0.500000
Mo353  Mo  0.004158  0.059581  0.482988
Te706  Te  0.000370  0.053002  0.465975
Te707  Te  0.011733  0.059581  0.500000
Mo354  Mo  0.015521  0.053002  0.482988
Te708  Te  0.011733  0.059581  0.465975
Te709  Te  0.000370  0.066160  0.500000
Mo355  Mo  0.004158  0.072739  0.482988
Te710  Te  0.000370  0.066160  0.465975
Te711  Te  0.011733  0.072739  0.500000
Mo356  Mo  0.015521  0.066160  0.482988
Te712  Te  0.011733  0.072739  0.465975
Te713  Te  0.000370  0.079318  0.500000
Mo357  Mo  0.004158  0.085897  0.482988
Te714  Te  0.000370  0.079318  0.465975
Te715  Te  0.011733  0.085897  0.500000
Mo358  Mo  0.015521  0.079318  0.482988
Te716  Te  0.011733  0.085897  0.465975
Te717  Te  0.000370  0.092476  0.500000
Mo359  Mo  0.004158  0.099055  0.482988
Te718  Te  0.000370  0.092476  0.465975
Te719  Te  0.011733  0.099055  0.500000
Mo360  Mo  0.015521  0.092476  0.482988
Te720  Te  0.011733  0.099055  0.465975
Te721  Te  0.023097  0.053002  0.500000
Mo361  Mo  0.026885  0.059581  0.482988
Te722  Te  0.023097  0.053002  0.465975
Te723  Te  0.034461  0.059581  0.500000
Mo362  Mo  0.038249  0.053002  0.482988
Te724  Te  0.034461  0.059581  0.465975
Te725  Te  0.023097  0.066160  0.500000
Mo363  Mo  0.026885  0.072739  0.482988
Te726  Te  0.023097  0.066160  0.465975
Te727  Te  0.034461  0.072739  0.500000
Mo364  Mo  0.038249  0.066160  0.482988
Te728  Te  0.034461  0.072739  0.465975
Te729  Te  0.023097  0.079318  0.500000
Mo365  Mo  0.026885  0.085897  0.482988
Te730  Te  0.023097  0.079318  0.465975
Te731  Te  0.034461  0.085897  0.500000
Mo366  Mo  0.038249  0.079318  0.482988
Te732  Te  0.034461  0.085897  0.465975
Te733  Te  0.023097  0.092476  0.500000
Mo367  Mo  0.026885  0.099055  0.482988
Te734  Te  0.023097  0.092476  0.465975
Te735  Te  0.034461  0.099055  0.500000
Mo368  Mo  0.038249  0.092476  0.482988
Te736  Te  0.034461  0.099055  0.465975
Te737  Te  0.045824  0.053002  0.500000
Mo369  Mo  0.049612  0.059581  0.482988
Te738  Te  0.045824  0.053002  0.465975
Te739  Te  0.057188  0.059581  0.500000
Mo370  Mo  0.060976  0.053002  0.482988
Te740  Te  0.057188  0.059581  0.465975
Te741  Te  0.045824  0.066160  0.500000
Mo371  Mo  0.049612  0.072739  0.482988
Te742  Te  0.045824  0.066160  0.465975
Te743  Te  0.057188  0.072739  0.500000
Mo372  Mo  0.060976  0.066160  0.482988
Te744  Te  0.057188  0.072739  0.465975
Te745  Te  0.045824  0.079318  0.500000
Mo373  Mo  0.049612  0.085897  0.482988
Te746  Te  0.045824  0.079318  0.465975
Te747  Te  0.057188  0.085897  0.500000
Mo374  Mo  0.060976  0.079318  0.482988
Te748  Te  0.057188  0.085897  0.465975
Te749  Te  0.045824  0.092476  0.500000
Mo375  Mo  0.049612  0.099055  0.482988
Te750  Te  0.045824  0.092476  0.465975
Te751  Te  0.057188  0.099055  0.500000
Mo376  Mo  0.060976  0.092476  0.482988
Te752  Te  0.057188  0.099055  0.465975
Te753  Te  0.068552  0.053002  0.500000
Mo377  Mo  0.072339  0.059581  0.482988
Te754  Te  0.068552  0.053002  0.465975
Te755  Te  0.079915  0.059581  0.500000
Mo378  Mo  0.083703  0.053002  0.482988
Te756  Te  0.079915  0.059581  0.465975
Te757  Te  0.068552  0.066160  0.500000
Mo379  Mo  0.072339  0.072739  0.482988
Te758  Te  0.068552  0.066160  0.465975
Te759  Te  0.079915  0.072739  0.500000
Mo380  Mo  0.083703  0.066160  0.482988
Te760  Te  0.079915  0.072739  0.465975
Te761  Te  0.068552  0.079318  0.500000
Mo381  Mo  0.072339  0.085897  0.482988
Te762  Te  0.068552  0.079318  0.465975
Te763  Te  0.079915  0.085897  0.500000
Mo382  Mo  0.083703  0.079318  0.482988
Te764  Te  0.079915  0.085897  0.465975
Te765  Te  0.068552  0.092476  0.500000
Mo383  Mo  0.072339  0.099055  0.482988
Te766  Te  0.068552  0.092476  0.465975
Te767  Te  0.079915  0.099055  0.500000
Mo384  Mo  0.083703  0.092476  0.482988
Te768  Te  0.079915  0.099055  0.465975
Te769  Te  0.091279  0.053002  0.500000
Mo385  Mo  0.095067  0.059581  0.482988
Te770  Te  0.091279  0.053002  0.465975
Te771  Te  0.102642  0.059581  0.500000
Mo386  Mo  0.106430  0.053002  0.482988
Te772  Te  0.102642  0.059581  0.465975
Te773  Te  0.091279  0.066160  0.500000
Mo387  Mo  0.095067  0.072739  0.482988
Te774  Te  0.091279  0.066160  0.465975
Te775  Te  0.102642  0.072739  0.500000
Mo388  Mo  0.106430  0.066160  0.482988
Te776  Te  0.102642  0.072739  0.465975
Te777  Te  0.091279  0.079318  0.500000
Mo389  Mo  0.095067  0.085897  0.482988
Te778  Te  0.091279  0.079318  0.465975
Te779  Te  0.102642  0.085897  0.500000
Mo390  Mo  0.106430  0.079318  0.482988
Te780  Te  0.102642  0.085897  0.465975
Te781  Te  0.091279  0.092476  0.500000
Mo391  Mo  0.095067  0.099055  0.482988
Te782  Te  0.091279  0.092476  0.465975
Te783  Te  0.102642  0.099055  0.500000
Mo392  Mo  0.106430  0.092476  0.482988
Te784  Te  0.102642  0.099055  0.465975
Te785  Te  0.114006  0.053002  0.500000
Mo393  Mo  0.117794  0.059581  0.482988
Te786  Te  0.114006  0.053002  0.465975
Te787  Te  0.125370  0.059581  0.500000
Mo394  Mo  0.129158  0.053002  0.482988
Te788  Te  0.125370  0.059581  0.465975
Te789  Te  0.114006  0.066160  0.500000
Mo395  Mo  0.117794  0.072739  0.482988
Te790  Te  0.114006  0.066160  0.465975
Te791  Te  0.125370  0.072739  0.500000
Mo396  Mo  0.129158  0.066160  0.482988
Te792  Te  0.125370  0.072739  0.465975
Te793  Te  0.114006  0.079318  0.500000
Mo397  Mo  0.117794  0.085897  0.482988
Te794  Te  0.114006  0.079318  0.465975
Te795  Te  0.125370  0.085897  0.500000
Mo398  Mo  0.129158  0.079318  0.482988
Te796  Te  0.125370  0.085897  0.465975
Te797  Te  0.114006  0.092476  0.500000
Mo399  Mo  0.117794  0.099055  0.482988
Te798  Te  0.114006  0.092476  0.465975
Te799  Te  0.125370  0.099055  0.500000
Mo400  Mo  0.129158  0.092476  0.482988
Te800  Te  0.125370  0.099055  0.465975
Te801  Te  0.136733  0.053002  0.500000
Mo401  Mo  0.140521  0.059581  0.482988
Te802  Te  0.136733  0.053002  0.465975
Te803  Te  0.148097  0.059581  0.500000
Mo402  Mo  0.151885  0.053002  0.482988
Te804  Te  0.148097  0.059581  0.465975
Te805  Te  0.136733  0.066160  0.500000
Mo403  Mo  0.140521  0.072739  0.482988
Te806  Te  0.136733  0.066160  0.465975
Te807  Te  0.148097  0.072739  0.500000
Mo404  Mo  0.151885  0.066160  0.482988
Te808  Te  0.148097  0.072739  0.465975
Te809  Te  0.136733  0.079318  0.500000
Mo405  Mo  0.140521  0.085897  0.482988
Te810  Te  0.136733  0.079318  0.465975
Te811  Te  0.148097  0.085897  0.500000
Mo406  Mo  0.151885  0.079318  0.482988
Te812  Te  0.148097  0.085897  0.465975
Te813  Te  0.136733  0.092476  0.500000
Mo407  Mo  0.140521  0.099055  0.482988
Te814  Te  0.136733  0.092476  0.465975
Te815  Te  0.148097  0.099055  0.500000
Mo408  Mo  0.151885  0.092476  0.482988
Te816  Te  0.148097  0.099055  0.465975
Te817  Te  0.159461  0.053002  0.500000
Mo409  Mo  0.163248  0.059581  0.482988
Te818  Te  0.159461  0.053002  0.465975
Te819  Te  0.170824  0.059581  0.500000
Mo410  Mo  0.174612  0.053002  0.482988
Te820  Te  0.170824  0.059581  0.465975
Te821  Te  0.159461  0.066160  0.500000
Mo411  Mo  0.163248  0.072739  0.482988
Te822  Te  0.159461  0.066160  0.465975
Te823  Te  0.170824  0.072739  0.500000
Mo412  Mo  0.174612  0.066160  0.482988
Te824  Te  0.170824  0.072739  0.465975
Te825  Te  0.159461  0.079318  0.500000
Mo413  Mo  0.163248  0.085897  0.482988
Te826  Te  0.159461  0.079318  0.465975
Te827  Te  0.170824  0.085897  0.500000
Mo414  Mo  0.174612  0.079318  0.482988
Te828  Te  0.170824  0.085897  0.465975
Te829  Te  0.159461  0.092476  0.500000
Mo415  Mo  0.163248  0.099055  0.482988
Te830  Te  0.159461  0.092476  0.465975
Te831  Te  0.170824  0.099055  0.500000
Mo416  Mo  0.174612  0.092476  0.482988
Te832  Te  0.170824  0.099055  0.465975
Te833  Te  0.182188  0.053002  0.500000
Mo417  Mo  0.185976  0.059581  0.482988
Te834  Te  0.182188  0.053002  0.465975
Te835  Te  0.193551  0.059581  0.500000
Mo418  Mo  0.197339  0.053002  0.482988
Te836  Te  0.193551  0.059581  0.465975
Te837  Te  0.182188  0.066160  0.500000
Mo419  Mo  0.185976  0.072739  0.482988
Te838  Te  0.182188  0.066160  0.465975
Te839  Te  0.193551  0.072739  0.500000
Mo420  Mo  0.197339  0.066160  0.482988
Te840  Te  0.193551  0.072739  0.465975
Te841  Te  0.182188  0.079318  0.500000
Mo421  Mo  0.185976  0.085897  0.482988
Te842  Te  0.182188  0.079318  0.465975
Te843  Te  0.193551  0.085897  0.500000
Mo422  Mo  0.197339  0.079318  0.482988
Te844  Te  0.193551  0.085897  0.465975
Te845  Te  0.182188  0.092476  0.500000
Mo423  Mo  0.185976  0.099055  0.482988
Te846  Te  0.182188  0.092476  0.465975
Te847  Te  0.193551  0.099055  0.500000
Mo424  Mo  0.197339  0.092476  0.482988
Te848  Te  0.193551  0.099055  0.465975
Te849  Te  0.204915  0.053002  0.500000
Mo425  Mo  0.208703  0.059581  0.482988
Te850  Te  0.204915  0.053002  0.465975
Te851  Te  0.216279  0.059581  0.500000
Mo426  Mo  0.220067  0.053002  0.482988
Te852  Te  0.216279  0.059581  0.465975
Te853  Te  0.204915  0.066160  0.500000
Mo427  Mo  0.208703  0.072739  0.482988
Te854  Te  0.204915  0.066160  0.465975
Te855  Te  0.216279  0.072739  0.500000
Mo428  Mo  0.220067  0.066160  0.482988
Te856  Te  0.216279  0.072739  0.465975
Te857  Te  0.204915  0.079318  0.500000
Mo429  Mo  0.208703  0.085897  0.482988
Te858  Te  0.204915  0.079318  0.465975
Te859  Te  0.216279  0.085897  0.500000
Mo430  Mo  0.220067  0.079318  0.482988
Te860  Te  0.216279  0.085897  0.465975
Te861  Te  0.204915  0.092476  0.500000
Mo431  Mo  0.208703  0.099055  0.482988
Te862  Te  0.204915  0.092476  0.465975
Te863  Te  0.216279  0.099055  0.500000
Mo432  Mo  0.220067  0.092476  0.482988
Te864  Te  0.216279  0.099055  0.465975
Te865  Te  0.227642  0.053002  0.500000
Mo433  Mo  0.231430  0.059581  0.482988
Te866  Te  0.227642  0.053002  0.465975
Te867  Te  0.239006  0.059581  0.500000
Mo434  Mo  0.242794  0.053002  0.482988
Te868  Te  0.239006  0.059581  0.465975
Te869  Te  0.227642  0.066160  0.500000
Mo435  Mo  0.231430  0.072739  0.482988
Te870  Te  0.227642  0.066160  0.465975
Te871  Te  0.239006  0.072739  0.500000
Mo436  Mo  0.242794  0.066160  0.482988
Te872  Te  0.239006  0.072739  0.465975
Te873  Te  0.227642  0.079318  0.500000
Mo437  Mo  0.231430  0.085897  0.482988
Te874  Te  0.227642  0.079318  0.465975
Te875  Te  0.239006  0.085897  0.500000
Mo438  Mo  0.242794  0.079318  0.482988
Te876  Te  0.239006  0.085897  0.465975
Te877  Te  0.227642  0.092476  0.500000
Mo439  Mo  0.231430  0.099055  0.482988
Te878  Te  0.227642  0.092476  0.465975
Te879  Te  0.239006  0.099055  0.500000
Mo440  Mo  0.242794  0.092476  0.482988
Te880  Te  0.239006  0.099055  0.465975
Te881  Te  0.250370  0.053002  0.500000
Mo441  Mo  0.254158  0.059581  0.482988
Te882  Te  0.250370  0.053002  0.465975
Te883  Te  0.261733  0.059581  0.500000
Mo442  Mo  0.265521  0.053002  0.482988
Te884  Te  0.261733  0.059581  0.465975
Te885  Te  0.250370  0.066160  0.500000
Mo443  Mo  0.254158  0.072739  0.482988
Te886  Te  0.250370  0.066160  0.465975
Te887  Te  0.261733  0.072739  0.500000
Mo444  Mo  0.265521  0.066160  0.482988
Te888  Te  0.261733  0.072739  0.465975
Te889  Te  0.250370  0.079318  0.500000
Mo445  Mo  0.254158  0.085897  0.482988
Te890  Te  0.250370  0.079318  0.465975
Te891  Te  0.261733  0.085897  0.500000
Mo446  Mo  0.265521  0.079318  0.482988
Te892  Te  0.261733  0.085897  0.465975
Te893  Te  0.250370  0.092476  0.500000
Mo447  Mo  0.254158  0.099055  0.482988
Te894  Te  0.250370  0.092476  0.465975
Te895  Te  0.261733  0.099055  0.500000
Mo448  Mo  0.265521  0.092476  0.482988
Te896  Te  0.261733  0.099055  0.465975
Te897  Te  0.273097  0.053002  0.500000
Mo449  Mo  0.276885  0.059581  0.482988
Te898  Te  0.273097  0.053002  0.465975
Te899  Te  0.284461  0.059581  0.500000
Mo450  Mo  0.288248  0.053002  0.482988
Te900  Te  0.284461  0.059581  0.465975
Te901  Te  0.273097  0.066160  0.500000
Mo451  Mo  0.276885  0.072739  0.482988
Te902  Te  0.273097  0.066160  0.465975
Te903  Te  0.284461  0.072739  0.500000
Mo452  Mo  0.288248  0.066160  0.482988
Te904  Te  0.284461  0.072739  0.465975
Te905  Te  0.273097  0.079318  0.500000
Mo453  Mo  0.276885  0.085897  0.482988
Te906  Te  0.273097  0.079318  0.465975
Te907  Te  0.284461  0.085897  0.500000
Mo454  Mo  0.288248  0.079318  0.482988
Te908  Te  0.284461  0.085897  0.465975
Te909  Te  0.273097  0.092476  0.500000
Mo455  Mo  0.276885  0.099055  0.482988
Te910  Te  0.273097  0.092476  0.465975
Te911  Te  0.284461  0.099055  0.500000
Mo456  Mo  0.288248  0.092476  0.482988
Te912  Te  0.284461  0.099055  0.465975
Te913  Te  0.295824  0.053002  0.500000
Mo457  Mo  0.299612  0.059581  0.482988
Te914  Te  0.295824  0.053002  0.465975
Te915  Te  0.307188  0.059581  0.500000
Mo458  Mo  0.310976  0.053002  0.482988
Te916  Te  0.307188  0.059581  0.465975
Te917  Te  0.295824  0.066160  0.500000
Mo459  Mo  0.299612  0.072739  0.482988
Te918  Te  0.295824  0.066160  0.465975
Te919  Te  0.307188  0.072739  0.500000
Mo460  Mo  0.310976  0.066160  0.482988
Te920  Te  0.307188  0.072739  0.465975
Te921  Te  0.295824  0.079318  0.500000
Mo461  Mo  0.299612  0.085897  0.482988
Te922  Te  0.295824  0.079318  0.465975
Te923  Te  0.307188  0.085897  0.500000
Mo462  Mo  0.310976  0.079318  0.482988
Te924  Te  0.307188  0.085897  0.465975
Te925  Te  0.295824  0.092476  0.500000
Mo463  Mo  0.299612  0.099055  0.482988
Te926  Te  0.295824  0.092476  0.465975
Te927  Te  0.307188  0.099055  0.500000
Mo464  Mo  0.310976  0.092476  0.482988
Te928  Te  0.307188  0.099055  0.465975
Te929  Te  0.318551  0.053002  0.500000
Mo465  Mo  0.322339  0.059581  0.482988
Te930  Te  0.318551  0.053002  0.465975
Te931  Te  0.329915  0.059581  0.500000
Mo466  Mo  0.333703  0.053002  0.482988
Te932  Te  0.329915  0.059581  0.465975
Te933  Te  0.318551  0.066160  0.500000
Mo467  Mo  0.322339  0.072739  0.482988
Te934  Te  0.318551  0.066160  0.465975
Te935  Te  0.329915  0.072739  0.500000
Mo468  Mo  0.333703  0.066160  0.482988
Te936  Te  0.329915  0.072739  0.465975
Te937  Te  0.318551  0.079318  0.500000
Mo469  Mo  0.322339  0.085897  0.482988
Te938  Te  0.318551  0.079318  0.465975
Te939  Te  0.329915  0.085897  0.500000
Mo470  Mo  0.333703  0.079318  0.482988
Te940  Te  0.329915  0.085897  0.465975
Te941  Te  0.318551  0.092476  0.500000
Mo471  Mo  0.322339  0.099055  0.482988
Te942  Te  0.318551  0.092476  0.465975
Te943  Te  0.329915  0.099055  0.500000
Mo472  Mo  0.333703  0.092476  0.482988
Te944  Te  0.329915  0.099055  0.465975
Te945  Te  0.341279  0.053002  0.500000
Mo473  Mo  0.345067  0.059581  0.482988
Te946  Te  0.341279  0.053002  0.465975
Te947  Te  0.352642  0.059581  0.500000
Mo474  Mo  0.356430  0.053002  0.482988
Te948  Te  0.352642  0.059581  0.465975
Te949  Te  0.341279  0.066160  0.500000
Mo475  Mo  0.345067  0.072739  0.482988
Te950  Te  0.341279  0.066160  0.465975
Te951  Te  0.352642  0.072739  0.500000
Mo476  Mo  0.356430  0.066160  0.482988
Te952  Te  0.352642  0.072739  0.465975
Te953  Te  0.341279  0.079318  0.500000
Mo477  Mo  0.345067  0.085897  0.482988
Te954  Te  0.341279  0.079318  0.465975
Te955  Te  0.352642  0.085897  0.500000
Mo478  Mo  0.356430  0.079318  0.482988
Te956  Te  0.352642  0.085897  0.465975
Te957  Te  0.341279  0.092476  0.500000
Mo479  Mo  0.345067  0.099055  0.482988
Te958  Te  0.341279  0.092476  0.465975
Te959  Te  0.352642  0.099055  0.500000
Mo480  Mo  0.356430  0.092476  0.482988
Te960  Te  0.352642  0.099055  0.465975
Te961  Te  0.364006  0.053002  0.500000
Mo481  Mo  0.367794  0.059581  0.482988
Te962  Te  0.364006  0.053002  0.465975
Te963  Te  0.375370  0.059581  0.500000
Mo482  Mo  0.379158  0.053002  0.482988
Te964  Te  0.375370  0.059581  0.465975
Te965  Te  0.364006  0.066160  0.500000
Mo483  Mo  0.367794  0.072739  0.482988
Te966  Te  0.364006  0.066160  0.465975
Te967  Te  0.375370  0.072739  0.500000
Mo484  Mo  0.379158  0.066160  0.482988
Te968  Te  0.375370  0.072739  0.465975
Te969  Te  0.364006  0.079318  0.500000
Mo485  Mo  0.367794  0.085897  0.482988
Te970  Te  0.364006  0.079318  0.465975
Te971  Te  0.375370  0.085897  0.500000
Mo486  Mo  0.379158  0.079318  0.482988
Te972  Te  0.375370  0.085897  0.465975
Te973  Te  0.364006  0.092476  0.500000
Mo487  Mo  0.367794  0.099055  0.482988
Te974  Te  0.364006  0.092476  0.465975
Te975  Te  0.375370  0.099055  0.500000
Mo488  Mo  0.379158  0.092476  0.482988
Te976  Te  0.375370  0.099055  0.465975
Te977  Te  0.386733  0.053002  0.500000
Mo489  Mo  0.390521  0.059581  0.482988
Te978  Te  0.386733  0.053002  0.465975
Te979  Te  0.398097  0.059581  0.500000
Mo490  Mo  0.401885  0.053002  0.482988
Te980  Te  0.398097  0.059581  0.465975
Te981  Te  0.386733  0.066160  0.500000
Mo491  Mo  0.390521  0.072739  0.482988
Te982  Te  0.386733  0.066160  0.465975
Te983  Te  0.398097  0.072739  0.500000
Mo492  Mo  0.401885  0.066160  0.482988
Te984  Te  0.398097  0.072739  0.465975
Te985  Te  0.386733  0.079318  0.500000
Mo493  Mo  0.390521  0.085897  0.482988
Te986  Te  0.386733  0.079318  0.465975
Te987  Te  0.398097  0.085897  0.500000
Mo494  Mo  0.401885  0.079318  0.482988
Te988  Te  0.398097  0.085897  0.465975
Te989  Te  0.386733  0.092476  0.500000
Mo495  Mo  0.390521  0.099055  0.482988
Te990  Te  0.386733  0.092476  0.465975
Te991  Te  0.398097  0.099055  0.500000
Mo496  Mo  0.401885  0.092476  0.482988
Te992  Te  0.398097  0.099055  0.465975
Te993  Te  0.409461  0.053002  0.500000
Mo497  Mo  0.413248  0.059581  0.482988
Te994  Te  0.409461  0.053002  0.465975
Te995  Te  0.420824  0.059581  0.500000
Mo498  Mo  0.424612  0.053002  0.482988
Te996  Te  0.420824  0.059581  0.465975
Te997  Te  0.409461  0.066160  0.500000
Mo499  Mo  0.413248  0.072739  0.482988
Te998  Te  0.409461  0.066160  0.465975
Te999  Te  0.420824  0.072739  0.500000
Mo500  Mo  0.424612  0.066160  0.482988
Te1000  Te  0.420824  0.072739  0.465975
Te1001  Te  0.409461  0.079318  0.500000
Mo501  Mo  0.413248  0.085897  0.482988
Te1002  Te  0.409461  0.079318  0.465975
Te1003  Te  0.420824  0.085897  0.500000
Mo502  Mo  0.424612  0.079318  0.482988
Te1004  Te  0.420824  0.085897  0.465975
Te1005  Te  0.409461  0.092476  0.500000
Mo503  Mo  0.413248  0.099055  0.482988
Te1006  Te  0.409461  0.092476  0.465975
Te1007  Te  0.420824  0.099055  0.500000
Mo504  Mo  0.424612  0.092476  0.482988
Te1008  Te  0.420824  0.099055  0.465975
Te1009  Te  0.432188  0.053002  0.500000
Mo505  Mo  0.435976  0.059581  0.482988
Te1010  Te  0.432188  0.053002  0.465975
Te1011  Te  0.443552  0.059581  0.500000
Mo506  Mo  0.447339  0.053002  0.482988
Te1012  Te  0.443552  0.059581  0.465975
Te1013  Te  0.432188  0.066160  0.500000
Mo507  Mo  0.435976  0.072739  0.482988
Te1014  Te  0.432188  0.066160  0.465975
Te1015  Te  0.443552  0.072739  0.500000
Mo508  Mo  0.447339  0.066160  0.482988
Te1016  Te  0.443552  0.072739  0.465975
Te1017  Te  0.432188  0.079318  0.500000
Mo509  Mo  0.435976  0.085897  0.482988
Te1018  Te  0.432188  0.079318  0.465975
Te1019  Te  0.443552  0.085897  0.500000
Mo510  Mo  0.447339  0.079318  0.482988
Te1020  Te  0.443552  0.085897  0.465975
Te1021  Te  0.432188  0.092476  0.500000
Mo511  Mo  0.435976  0.099055  0.482988
Te1022  Te  0.432188  0.092476  0.465975
Te1023  Te  0.443552  0.099055  0.500000
Mo512  Mo  0.447339  0.092476  0.482988
Te1024  Te  0.443552  0.099055  0.465975
Te1025  Te  0.454915  0.053002  0.500000
Mo513  Mo  0.458703  0.059581  0.482988
Te1026  Te  0.454915  0.053002  0.465975
Te1027  Te  0.466279  0.059581  0.500000
Mo514  Mo  0.470067  0.053002  0.482988
Te1028  Te  0.466279  0.059581  0.465975
Te1029  Te  0.454915  0.066160  0.500000
Mo515  Mo  0.458703  0.072739  0.482988
Te1030  Te  0.454915  0.066160  0.465975
Te1031  Te  0.466279  0.072739  0.500000
Mo516  Mo  0.470067  0.066160  0.482988
Te1032  Te  0.466279  0.072739  0.465975
Te1033  Te  0.454915  0.079318  0.500000
Mo517  Mo  0.458703  0.085897  0.482988
Te1034  Te  0.454915  0.079318  0.465975
Te1035  Te  0.466279  0.085897  0.500000
Mo518  Mo  0.470067  0.079318  0.482988
Te1036  Te  0.466279  0.085897  0.465975
Te1037  Te  0.454915  0.092476  0.500000
Mo519  Mo  0.458703  0.099055  0.482988
Te1038  Te  0.454915  0.092476  0.465975
Te1039  Te  0.466279  0.099055  0.500000
Mo520  Mo  0.470067  0.092476  0.482988
Te1040  Te  0.466279  0.099055  0.465975
Te1041  Te  0.477642  0.053002  0.500000
Mo521  Mo  0.481430  0.059581  0.482988
Te1042  Te  0.477642  0.053002  0.465975
Te1043  Te  0.489006  0.059581  0.500000
Mo522  Mo  0.492794  0.053002  0.482988
Te1044  Te  0.489006  0.059581  0.465975
Te1045  Te  0.477642  0.066160  0.500000
Mo523  Mo  0.481430  0.072739  0.482988
Te1046  Te  0.477642  0.066160  0.465975
Te1047  Te  0.489006  0.072739  0.500000
Mo524  Mo  0.492794  0.066160  0.482988
Te1048  Te  0.489006  0.072739  0.465975
Te1049  Te  0.477642  0.079318  0.500000
Mo525  Mo  0.481430  0.085897  0.482988
Te1050  Te  0.477642  0.079318  0.465975
Te1051  Te  0.489006  0.085897  0.500000
Mo526  Mo  0.492794  0.079318  0.482988
Te1052  Te  0.489006  0.085897  0.465975
Te1053  Te  0.477642  0.092476  0.500000
Mo527  Mo  0.481430  0.099055  0.482988
Te1054  Te  0.477642  0.092476  0.465975
Te1055  Te  0.489006  0.099055  0.500000
Mo528  Mo  0.492794  0.092476  0.482988
Te1056  Te  0.489006  0.099055  0.465975
Te1057  Te  0.500370  0.053002  0.500000
Mo529  Mo  0.504158  0.059581  0.482988
Te1058  Te  0.500370  0.053002  0.465975
Te1059  Te  0.511733  0.059581  0.500000
Mo530  Mo  0.515521  0.053002  0.482988
Te1060  Te  0.511733  0.059581  0.465975
Te1061  Te  0.500370  0.066160  0.500000
Mo531  Mo  0.504158  0.072739  0.482988
Te1062  Te  0.500370  0.066160  0.465975
Te1063  Te  0.511733  0.072739  0.500000
Mo532  Mo  0.515521  0.066160  0.482988
Te1064  Te  0.511733  0.072739  0.465975
Te1065  Te  0.500370  0.079318  0.500000
Mo533  Mo  0.504158  0.085897  0.482988
Te1066  Te  0.500370  0.079318  0.465975
Te1067  Te  0.511733  0.085897  0.500000
Mo534  Mo  0.515521  0.079318  0.482988
Te1068  Te  0.511733  0.085897  0.465975
Te1069  Te  0.500370  0.092476  0.500000
Mo535  Mo  0.504158  0.099055  0.482988
Te1070  Te  0.500370  0.092476  0.465975
Te1071  Te  0.511733  0.099055  0.500000
Mo536  Mo  0.515521  0.092476  0.482988
Te1072  Te  0.511733  0.099055  0.465975
Te1073  Te  0.523097  0.053002  0.500000
Mo537  Mo  0.526885  0.059581  0.482988
Te1074  Te  0.523097  0.053002  0.465975
Te1075  Te  0.534461  0.059581  0.500000
Mo538  Mo  0.538249  0.053002  0.482988
Te1076  Te  0.534461  0.059581  0.465975
Te1077  Te  0.523097  0.066160  0.500000
Mo539  Mo  0.526885  0.072739  0.482988
Te1078  Te  0.523097  0.066160  0.465975
Te1079  Te  0.534461  0.072739  0.500000
Mo540  Mo  0.538249  0.066160  0.482988
Te1080  Te  0.534461  0.072739  0.465975
Te1081  Te  0.523097  0.079318  0.500000
Mo541  Mo  0.526885  0.085897  0.482988
Te1082  Te  0.523097  0.079318  0.465975
Te1083  Te  0.534461  0.085897  0.500000
Mo542  Mo  0.538249  0.079318  0.482988
Te1084  Te  0.534461  0.085897  0.465975
Te1085  Te  0.523097  0.092476  0.500000
Mo543  Mo  0.526885  0.099055  0.482988
Te1086  Te  0.523097  0.092476  0.465975
Te1087  Te  0.534461  0.099055  0.500000
Mo544  Mo  0.538249  0.092476  0.482988
Te1088  Te  0.534461  0.099055  0.465975
Te1089  Te  0.545824  0.053002  0.500000
Mo545  Mo  0.549612  0.059581  0.482988
Te1090  Te  0.545824  0.053002  0.465975
Te1091  Te  0.557188  0.059581  0.500000
Mo546  Mo  0.560976  0.053002  0.482988
Te1092  Te  0.557188  0.059581  0.465975
Te1093  Te  0.545824  0.066160  0.500000
Mo547  Mo  0.549612  0.072739  0.482988
Te1094  Te  0.545824  0.066160  0.465975
Te1095  Te  0.557188  0.072739  0.500000
Mo548  Mo  0.560976  0.066160  0.482988
Te1096  Te  0.557188  0.072739  0.465975
Te1097  Te  0.545824  0.079318  0.500000
Mo549  Mo  0.549612  0.085897  0.482988
Te1098  Te  0.545824  0.079318  0.465975
Te1099  Te  0.557188  0.085897  0.500000
Mo550  Mo  0.560976  0.079318  0.482988
Te1100  Te  0.557188  0.085897  0.465975
Te1101  Te  0.545824  0.092476  0.500000
Mo551  Mo  0.549612  0.099055  0.482988
Te1102  Te  0.545824  0.092476  0.465975
Te1103  Te  0.557188  0.099055  0.500000
Mo552  Mo  0.560976  0.092476  0.482988
Te1104  Te  0.557188  0.099055  0.465975
Te1105  Te  0.568552  0.053002  0.500000
Mo553  Mo  0.572339  0.059581  0.482988
Te1106  Te  0.568552  0.053002  0.465975
Te1107  Te  0.579915  0.059581  0.500000
Mo554  Mo  0.583703  0.053002  0.482988
Te1108  Te  0.579915  0.059581  0.465975
Te1109  Te  0.568552  0.066160  0.500000
Mo555  Mo  0.572339  0.072739  0.482988
Te1110  Te  0.568552  0.066160  0.465975
Te1111  Te  0.579915  0.072739  0.500000
Mo556  Mo  0.583703  0.066160  0.482988
Te1112  Te  0.579915  0.072739  0.465975
Te1113  Te  0.568552  0.079318  0.500000
Mo557  Mo  0.572339  0.085897  0.482988
Te1114  Te  0.568552  0.079318  0.465975
Te1115  Te  0.579915  0.085897  0.500000
Mo558  Mo  0.583703  0.079318  0.482988
Te1116  Te  0.579915  0.085897  0.465975
Te1117  Te  0.568552  0.092476  0.500000
Mo559  Mo  0.572339  0.099055  0.482988
Te1118  Te  0.568552  0.092476  0.465975
Te1119  Te  0.579915  0.099055  0.500000
Mo560  Mo  0.583703  0.092476  0.482988
Te1120  Te  0.579915  0.099055  0.465975
Te1121  Te  0.591279  0.053002  0.500000
Mo561  Mo  0.595067  0.059581  0.482988
Te1122  Te  0.591279  0.053002  0.465975
Te1123  Te  0.602642  0.059581  0.500000
Mo562  Mo  0.606430  0.053002  0.482988
Te1124  Te  0.602642  0.059581  0.465975
Te1125  Te  0.591279  0.066160  0.500000
Mo563  Mo  0.595067  0.072739  0.482988
Te1126  Te  0.591279  0.066160  0.465975
Te1127  Te  0.602642  0.072739  0.500000
Mo564  Mo  0.606430  0.066160  0.482988
Te1128  Te  0.602642  0.072739  0.465975
Te1129  Te  0.591279  0.079318  0.500000
Mo565  Mo  0.595067  0.085897  0.482988
Te1130  Te  0.591279  0.079318  0.465975
Te1131  Te  0.602642  0.085897  0.500000
Mo566  Mo  0.606430  0.079318  0.482988
Te1132  Te  0.602642  0.085897  0.465975
Te1133  Te  0.591279  0.092476  0.500000
Mo567  Mo  0.595067  0.099055  0.482988
Te1134  Te  0.591279  0.092476  0.465975
Te1135  Te  0.602642  0.099055  0.500000
Mo568  Mo  0.606430  0.092476  0.482988
Te1136  Te  0.602642  0.099055  0.465975
Te1137  Te  0.614006  0.053002  0.500000
Mo569  Mo  0.617794  0.059581  0.482988
Te1138  Te  0.614006  0.053002  0.465975
Te1139  Te  0.625370  0.059581  0.500000
Mo570  Mo  0.629158  0.053002  0.482988
Te1140  Te  0.625370  0.059581  0.465975
Te1141  Te  0.614006  0.066160  0.500000
Mo571  Mo  0.617794  0.072739  0.482988
Te1142  Te  0.614006  0.066160  0.465975
Te1143  Te  0.625370  0.072739  0.500000
Mo572  Mo  0.629158  0.066160  0.482988
Te1144  Te  0.625370  0.072739  0.465975
Te1145  Te  0.614006  0.079318  0.500000
Mo573  Mo  0.617794  0.085897  0.482988
Te1146  Te  0.614006  0.079318  0.465975
Te1147  Te  0.625370  0.085897  0.500000
Mo574  Mo  0.629158  0.079318  0.482988
Te1148  Te  0.625370  0.085897  0.465975
Te1149  Te  0.614006  0.092476  0.500000
Mo575  Mo  0.617794  0.099055  0.482988
Te1150  Te  0.614006  0.092476  0.465975
Te1151  Te  0.625370  0.099055  0.500000
Mo576  Mo  0.629158  0.092476  0.482988
Te1152  Te  0.625370  0.099055  0.465975
Te1153  Te  0.636733  0.053002  0.500000
Mo577  Mo  0.640521  0.059581  0.482988
Te1154  Te  0.636733  0.053002  0.465975
Te1155  Te  0.648097  0.059581  0.500000
Mo578  Mo  0.651885  0.053002  0.482988
Te1156  Te  0.648097  0.059581  0.465975
Te1157  Te  0.636733  0.066160  0.500000
Mo579  Mo  0.640521  0.072739  0.482988
Te1158  Te  0.636733  0.066160  0.465975
Te1159  Te  0.648097  0.072739  0.500000
Mo580  Mo  0.651885  0.066160  0.482988
Te1160  Te  0.648097  0.072739  0.465975
Te1161  Te  0.636733  0.079318  0.500000
Mo581  Mo  0.640521  0.085897  0.482988
Te1162  Te  0.636733  0.079318  0.465975
Te1163  Te  0.648097  0.085897  0.500000
Mo582  Mo  0.651885  0.079318  0.482988
Te1164  Te  0.648097  0.085897  0.465975
Te1165  Te  0.636733  0.092476  0.500000
Mo583  Mo  0.640521  0.099055  0.482988
Te1166  Te  0.636733  0.092476  0.465975
Te1167  Te  0.648097  0.099055  0.500000
Mo584  Mo  0.651885  0.092476  0.482988
Te1168  Te  0.648097  0.099055  0.465975
Te1169  Te  0.659461  0.053002  0.500000
Mo585  Mo  0.663248  0.059581  0.482988
Te1170  Te  0.659461  0.053002  0.465975
Te1171  Te  0.670824  0.059581  0.500000
Mo586  Mo  0.674612  0.053002  0.482988
Te1172  Te  0.670824  0.059581  0.465975
Te1173  Te  0.659461  0.066160  0.500000
Mo587  Mo  0.663248  0.072739  0.482988
Te1174  Te  0.659461  0.066160  0.465975
Te1175  Te  0.670824  0.072739  0.500000
Mo588  Mo  0.674612  0.066160  0.482988
Te1176  Te  0.670824  0.072739  0.465975
Te1177  Te  0.659461  0.079318  0.500000
Mo589  Mo  0.663248  0.085897  0.482988
Te1178  Te  0.659461  0.079318  0.465975
Te1179  Te  0.670824  0.085897  0.500000
Mo590  Mo  0.674612  0.079318  0.482988
Te1180  Te  0.670824  0.085897  0.465975
Te1181  Te  0.659461  0.092476  0.500000
Mo591  Mo  0.663248  0.099055  0.482988
Te1182  Te  0.659461  0.092476  0.465975
Te1183  Te  0.670824  0.099055  0.500000
Mo592  Mo  0.674612  0.092476  0.482988
Te1184  Te  0.670824  0.099055  0.465975
Te1185  Te  0.682188  0.053002  0.500000
Mo593  Mo  0.685976  0.059581  0.482988
Te1186  Te  0.682188  0.053002  0.465975
Te1187  Te  0.693551  0.059581  0.500000
Mo594  Mo  0.697339  0.053002  0.482988
Te1188  Te  0.693551  0.059581  0.465975
Te1189  Te  0.682188  0.066160  0.500000
Mo595  Mo  0.685976  0.072739  0.482988
Te1190  Te  0.682188  0.066160  0.465975
Te1191  Te  0.693551  0.072739  0.500000
Mo596  Mo  0.697339  0.066160  0.482988
Te1192  Te  0.693551  0.072739  0.465975
Te1193  Te  0.682188  0.079318  0.500000
Mo597  Mo  0.685976  0.085897  0.482988
Te1194  Te  0.682188  0.079318  0.465975
Te1195  Te  0.693551  0.085897  0.500000
Mo598  Mo  0.697339  0.079318  0.482988
Te1196  Te  0.693551  0.085897  0.465975
Te1197  Te  0.682188  0.092476  0.500000
Mo599  Mo  0.685976  0.099055  0.482988
Te1198  Te  0.682188  0.092476  0.465975
Te1199  Te  0.693551  0.099055  0.500000
Mo600  Mo  0.697339  0.092476  0.482988
Te1200  Te  0.693551  0.099055  0.465975
Te1201  Te  0.704915  0.053002  0.500000
Mo601  Mo  0.708703  0.059581  0.482988
Te1202  Te  0.704915  0.053002  0.465975
Te1203  Te  0.716279  0.059581  0.500000
Mo602  Mo  0.720067  0.053002  0.482988
Te1204  Te  0.716279  0.059581  0.465975
Te1205  Te  0.704915  0.066160  0.500000
Mo603  Mo  0.708703  0.072739  0.482988
Te1206  Te  0.704915  0.066160  0.465975
Te1207  Te  0.716279  0.072739  0.500000
Mo604  Mo  0.720067  0.066160  0.482988
Te1208  Te  0.716279  0.072739  0.465975
Te1209  Te  0.704915  0.079318  0.500000
Mo605  Mo  0.708703  0.085897  0.482988
Te1210  Te  0.704915  0.079318  0.465975
Te1211  Te  0.716279  0.085897  0.500000
Mo606  Mo  0.720067  0.079318  0.482988
Te1212  Te  0.716279  0.085897  0.465975
Te1213  Te  0.704915  0.092476  0.500000
Mo607  Mo  0.708703  0.099055  0.482988
Te1214  Te  0.704915  0.092476  0.465975
Te1215  Te  0.716279  0.099055  0.500000
Mo608  Mo  0.720067  0.092476  0.482988
Te1216  Te  0.716279  0.099055  0.465975
Te1217  Te  0.727642  0.053002  0.500000
Mo609  Mo  0.731430  0.059581  0.482988
Te1218  Te  0.727642  0.053002  0.465975
Te1219  Te  0.739006  0.059581  0.500000
Mo610  Mo  0.742794  0.053002  0.482988
Te1220  Te  0.739006  0.059581  0.465975
Te1221  Te  0.727642  0.066160  0.500000
Mo611  Mo  0.731430  0.072739  0.482988
Te1222  Te  0.727642  0.066160  0.465975
Te1223  Te  0.739006  0.072739  0.500000
Mo612  Mo  0.742794  0.066160  0.482988
Te1224  Te  0.739006  0.072739  0.465975
Te1225  Te  0.727642  0.079318  0.500000
Mo613  Mo  0.731430  0.085897  0.482988
Te1226  Te  0.727642  0.079318  0.465975
Te1227  Te  0.739006  0.085897  0.500000
Mo614  Mo  0.742794  0.079318  0.482988
Te1228  Te  0.739006  0.085897  0.465975
Te1229  Te  0.727642  0.092476  0.500000
Mo615  Mo  0.731430  0.099055  0.482988
Te1230  Te  0.727642  0.092476  0.465975
Te1231  Te  0.739006  0.099055  0.500000
Mo616  Mo  0.742794  0.092476  0.482988
Te1232  Te  0.739006  0.099055  0.465975
Te1233  Te  0.750370  0.053002  0.500000
Mo617  Mo  0.754158  0.059581  0.482988
Te1234  Te  0.750370  0.053002  0.465975
Te1235  Te  0.761733  0.059581  0.500000
Mo618  Mo  0.765521  0.053002  0.482988
Te1236  Te  0.761733  0.059581  0.465975
Te1237  Te  0.750370  0.066160  0.500000
Mo619  Mo  0.754158  0.072739  0.482988
Te1238  Te  0.750370  0.066160  0.465975
Te1239  Te  0.761733  0.072739  0.500000
Mo620  Mo  0.765521  0.066160  0.482988
Te1240  Te  0.761733  0.072739  0.465975
Te1241  Te  0.750370  0.079318  0.500000
Mo621  Mo  0.754158  0.085897  0.482988
Te1242  Te  0.750370  0.079318  0.465975
Te1243  Te  0.761733  0.085897  0.500000
Mo622  Mo  0.765521  0.079318  0.482988
Te1244  Te  0.761733  0.085897  0.465975
Te1245  Te  0.750370  0.092476  0.500000
Mo623  Mo  0.754158  0.099055  0.482988
Te1246  Te  0.750370  0.092476  0.465975
Te1247  Te  0.761733  0.099055  0.500000
Mo624  Mo  0.765521  0.092476  0.482988
Te1248  Te  0.761733  0.099055  0.465975
Te1249  Te  0.773097  0.053002  0.500000
Mo625  Mo  0.776885  0.059581  0.482988
Te1250  Te  0.773097  0.053002  0.465975
Te1251  Te  0.784461  0.059581  0.500000
Mo626  Mo  0.788248  0.053002  0.482988
Te1252  Te  0.784461  0.059581  0.465975
Te1253  Te  0.773097  0.066160  0.500000
Mo627  Mo  0.776885  0.072739  0.482988
Te1254  Te  0.773097  0.066160  0.465975
Te1255  Te  0.784461  0.072739  0.500000
Mo628  Mo  0.788248  0.066160  0.482988
Te1256  Te  0.784461  0.072739  0.465975
Te1257  Te  0.773097  0.079318  0.500000
Mo629  Mo  0.776885  0.085897  0.482988
Te1258  Te  0.773097  0.079318  0.465975
Te1259  Te  0.784461  0.085897  0.500000
Mo630  Mo  0.788248  0.079318  0.482988
Te1260  Te  0.784461  0.085897  0.465975
Te1261  Te  0.773097  0.092476  0.500000
Mo631  Mo  0.776885  0.099055  0.482988
Te1262  Te  0.773097  0.092476  0.465975
Te1263  Te  0.784461  0.099055  0.500000
Mo632  Mo  0.788248  0.092476  0.482988
Te1264  Te  0.784461  0.099055  0.465975
Te1265  Te  0.795824  0.053002  0.500000
Mo633  Mo  0.799612  0.059581  0.482988
Te1266  Te  0.795824  0.053002  0.465975
Te1267  Te  0.807188  0.059581  0.500000
Mo634  Mo  0.810976  0.053002  0.482988
Te1268  Te  0.807188  0.059581  0.465975
Te1269  Te  0.795824  0.066160  0.500000
Mo635  Mo  0.799612  0.072739  0.482988
Te1270  Te  0.795824  0.066160  0.465975
Te1271  Te  0.807188  0.072739  0.500000
Mo636  Mo  0.810976  0.066160  0.482988
Te1272  Te  0.807188  0.072739  0.465975
Te1273  Te  0.795824  0.079318  0.500000
Mo637  Mo  0.799612  0.085897  0.482988
Te1274  Te  0.795824  0.079318  0.465975
Te1275  Te  0.807188  0.085897  0.500000
Mo638  Mo  0.810976  0.079318  0.482988
Te1276  Te  0.807188  0.085897  0.465975
Te1277  Te  0.795824  0.092476  0.500000
Mo639  Mo  0.799612  0.099055  0.482988
Te1278  Te  0.795824  0.092476  0.465975
Te1279  Te  0.807188  0.099055  0.500000
Mo640  Mo  0.810976  0.092476  0.482988
Te1280  Te  0.807188  0.099055  0.465975
Te1281  Te  0.818551  0.053002  0.500000
Mo641  Mo  0.822339  0.059581  0.482988
Te1282  Te  0.818551  0.053002  0.465975
Te1283  Te  0.829915  0.059581  0.500000
Mo642  Mo  0.833703  0.053002  0.482988
Te1284  Te  0.829915  0.059581  0.465975
Te1285  Te  0.818551  0.066160  0.500000
Mo643  Mo  0.822339  0.072739  0.482988
Te1286  Te  0.818551  0.066160  0.465975
Te1287  Te  0.829915  0.072739  0.500000
Mo644  Mo  0.833703  0.066160  0.482988
Te1288  Te  0.829915  0.072739  0.465975
Te1289  Te  0.818551  0.079318  0.500000
Mo645  Mo  0.822339  0.085897  0.482988
Te1290  Te  0.818551  0.079318  0.465975
Te1291  Te  0.829915  0.085897  0.500000
Mo646  Mo  0.833703  0.079318  0.482988
Te1292  Te  0.829915  0.085897  0.465975
Te1293  Te  0.818551  0.092476  0.500000
Mo647  Mo  0.822339  0.099055  0.482988
Te1294  Te  0.818551  0.092476  0.465975
Te1295  Te  0.829915  0.099055  0.500000
Mo648  Mo  0.833703  0.092476  0.482988
Te1296  Te  0.829915  0.099055  0.465975
Te1297  Te  0.841279  0.053002  0.500000
Mo649  Mo  0.845067  0.059581  0.482988
Te1298  Te  0.841279  0.053002  0.465975
Te1299  Te  0.852642  0.059581  0.500000
Mo650  Mo  0.856430  0.053002  0.482988
Te1300  Te  0.852642  0.059581  0.465975
Te1301  Te  0.841279  0.066160  0.500000
Mo651  Mo  0.845067  0.072739  0.482988
Te1302  Te  0.841279  0.066160  0.465975
Te1303  Te  0.852642  0.072739  0.500000
Mo652  Mo  0.856430  0.066160  0.482988
Te1304  Te  0.852642  0.072739  0.465975
Te1305  Te  0.841279  0.079318  0.500000
Mo653  Mo  0.845067  0.085897  0.482988
Te1306  Te  0.841279  0.079318  0.465975
Te1307  Te  0.852642  0.085897  0.500000
Mo654  Mo  0.856430  0.079318  0.482988
Te1308  Te  0.852642  0.085897  0.465975
Te1309  Te  0.841279  0.092476  0.500000
Mo655  Mo  0.845067  0.099055  0.482988
Te1310  Te  0.841279  0.092476  0.465975
Te1311  Te  0.852642  0.099055  0.500000
Mo656  Mo  0.856430  0.092476  0.482988
Te1312  Te  0.852642  0.099055  0.465975
Te1313  Te  0.864006  0.053002  0.500000
Mo657  Mo  0.867794  0.059581  0.482988
Te1314  Te  0.864006  0.053002  0.465975
Te1315  Te  0.875370  0.059581  0.500000
Mo658  Mo  0.879158  0.053002  0.482988
Te1316  Te  0.875370  0.059581  0.465975
Te1317  Te  0.864006  0.066160  0.500000
Mo659  Mo  0.867794  0.072739  0.482988
Te1318  Te  0.864006  0.066160  0.465975
Te1319  Te  0.875370  0.072739  0.500000
Mo660  Mo  0.879158  0.066160  0.482988
Te1320  Te  0.875370  0.072739  0.465975
Te1321  Te  0.864006  0.079318  0.500000
Mo661  Mo  0.867794  0.085897  0.482988
Te1322  Te  0.864006  0.079318  0.465975
Te1323  Te  0.875370  0.085897  0.500000
Mo662  Mo  0.879158  0.079318  0.482988
Te1324  Te  0.875370  0.085897  0.465975
Te1325  Te  0.864006  0.092476  0.500000
Mo663  Mo  0.867794  0.099055  0.482988
Te1326  Te  0.864006  0.092476  0.465975
Te1327  Te  0.875370  0.099055  0.500000
Mo664  Mo  0.879158  0.092476  0.482988
Te1328  Te  0.875370  0.099055  0.465975
Te1329  Te  0.886733  0.053002  0.500000
Mo665  Mo  0.890521  0.059581  0.482988
Te1330  Te  0.886733  0.053002  0.465975
Te1331  Te  0.898097  0.059581  0.500000
Mo666  Mo  0.901885  0.053002  0.482988
Te1332  Te  0.898097  0.059581  0.465975
Te1333  Te  0.886733  0.066160  0.500000
Mo667  Mo  0.890521  0.072739  0.482988
Te1334  Te  0.886733  0.066160  0.465975
Te1335  Te  0.898097  0.072739  0.500000
Mo668  Mo  0.901885  0.066160  0.482988
Te1336  Te  0.898097  0.072739  0.465975
Te1337  Te  0.886733  0.079318  0.500000
Mo669  Mo  0.890521  0.085897  0.482988
Te1338  Te  0.886733  0.079318  0.465975
Te1339  Te  0.898097  0.085897  0.500000
Mo670  Mo  0.901885  0.079318  0.482988
Te1340  Te  0.898097  0.085897  0.465975
Te1341  Te  0.886733  0.092476  0.500000
Mo671  Mo  0.890521  0.099055  0.482988
Te1342  Te  0.886733  0.092476  0.465975
Te1343  Te  0.898097  0.099055  0.500000
Mo672  Mo  0.901885  0.092476  0.482988
Te1344  Te  0.898097  0.099055  0.465975
Te1345  Te  0.909461  0.053002  0.500000
Mo673  Mo  0.913248  0.059581  0.482988
Te1346  Te  0.909461  0.053002  0.465975
Te1347  Te  0.920824  0.059581  0.500000
Mo674  Mo  0.924612  0.053002  0.482988
Te1348  Te  0.920824  0.059581  0.465975
Te1349  Te  0.909461  0.066160  0.500000
Mo675  Mo  0.913248  0.072739  0.482988
Te1350  Te  0.909461  0.066160  0.465975
Te1351  Te  0.920824  0.072739  0.500000
Mo676  Mo  0.924612  0.066160  0.482988
Te1352  Te  0.920824  0.072739  0.465975
Te1353  Te  0.909461  0.079318  0.500000
Mo677  Mo  0.913248  0.085897  0.482988
Te1354  Te  0.909461  0.079318  0.465975
Te1355  Te  0.920824  0.085897  0.500000
Mo678  Mo  0.924612  0.079318  0.482988
Te1356  Te  0.920824  0.085897  0.465975
Te1357  Te  0.909461  0.092476  0.500000
Mo679  Mo  0.913248  0.099055  0.482988
Te1358  Te  0.909461  0.092476  0.465975
Te1359  Te  0.920824  0.099055  0.500000
Mo680  Mo  0.924612  0.092476  0.482988
Te1360  Te  0.920824  0.099055  0.465975
Te1361  Te  0.932188  0.053002  0.500000
Mo681  Mo  0.935976  0.059581  0.482988
Te1362  Te  0.932188  0.053002  0.465975
Te1363  Te  0.943552  0.059581  0.500000
Mo682  Mo  0.947339  0.053002  0.482988
Te1364  Te  0.943552  0.059581  0.465975
Te1365  Te  0.932188  0.066160  0.500000
Mo683  Mo  0.935976  0.072739  0.482988
Te1366  Te  0.932188  0.066160  0.465975
Te1367  Te  0.943552  0.072739  0.500000
Mo684  Mo  0.947339  0.066160  0.482988
Te1368  Te  0.943552  0.072739  0.465975
Te1369  Te  0.932188  0.079318  0.500000
Mo685  Mo  0.935976  0.085897  0.482988
Te1370  Te  0.932188  0.079318  0.465975
Te1371  Te  0.943552  0.085897  0.500000
Mo686  Mo  0.947339  0.079318  0.482988
Te1372  Te  0.943552  0.085897  0.465975
Te1373  Te  0.932188  0.092476  0.500000
Mo687  Mo  0.935976  0.099055  0.482988
Te1374  Te  0.932188  0.092476  0.465975
Te1375  Te  0.943552  0.099055  0.500000
Mo688  Mo  0.947339  0.092476  0.482988
Te1376  Te  0.943552  0.099055  0.465975
Te1377  Te  0.954915  0.053002  0.500000
Mo689  Mo  0.958703  0.059581  0.482988
Te1378  Te  0.954915  0.053002  0.465975
Te1379  Te  0.966279  0.059581  0.500000
Mo690  Mo  0.970067  0.053002  0.482988
Te1380  Te  0.966279  0.059581  0.465975
Te1381  Te  0.954915  0.066160  0.500000
Mo691  Mo  0.958703  0.072739  0.482988
Te1382  Te  0.954915  0.066160  0.465975
Te1383  Te  0.966279  0.072739  0.500000
Mo692  Mo  0.970067  0.066160  0.482988
Te1384  Te  0.966279  0.072739  0.465975
Te1385  Te  0.954915  0.079318  0.500000
Mo693  Mo  0.958703  0.085897  0.482988
Te1386  Te  0.954915  0.079318  0.465975
Te1387  Te  0.966279  0.085897  0.500000
Mo694  Mo  0.970067  0.079318  0.482988
Te1388  Te  0.966279  0.085897  0.465975
Te1389  Te  0.954915  0.092476  0.500000
Mo695  Mo  0.958703  0.099055  0.482988
Te1390  Te  0.954915  0.092476  0.465975
Te1391  Te  0.966279  0.099055  0.500000
Mo696  Mo  0.970067  0.092476  0.482988
Te1392  Te  0.966279  0.099055  0.465975
Te1393  Te  0.977642  0.053002  0.500000
Mo697  Mo  0.981430  0.059581  0.482988
Te1394  Te  0.977642  0.053002  0.465975
Te1395  Te  0.989006  0.059581  0.500000
Mo698  Mo  0.992794  0.053002  0.482988
Te1396  Te  0.989006  0.059581  0.465975
Te1397  Te  0.977642  0.066160  0.500000
Mo699  Mo  0.981430  0.072739  0.482988
Te1398  Te  0.977642  0.066160  0.465975
Te1399  Te  0.989006  0.072739  0.500000
Mo700  Mo  0.992794  0.066160  0.482988
Te1400  Te  0.989006  0.072739  0.465975
Te1401  Te  0.977642  0.079318  0.500000
Mo701  Mo  0.981430  0.085897  0.482988
Te1402  Te  0.977642  0.079318  0.465975
Te1403  Te  0.989006  0.085897  0.500000
Mo702  Mo  0.992794  0.079318  0.482988
Te1404  Te  0.989006  0.085897  0.465975
Te1405  Te  0.977642  0.092476  0.500000
Mo703  Mo  0.981430  0.099055  0.482988
Te1406  Te  0.977642  0.092476  0.465975
Te1407  Te  0.989006  0.099055  0.500000
Mo704  Mo  0.992794  0.092476  0.482988
Te1408  Te  0.989006  0.099055  0.465975
Te1409  Te  0.000370  0.105634  0.500000
Mo705  Mo  0.004158  0.112213  0.482988
Te1410  Te  0.000370  0.105634  0.465975
Te1411  Te  0.011733  0.112213  0.500000
Mo706  Mo  0.015521  0.105634  0.482988
Te1412  Te  0.011733  0.112213  0.465975
Te1413  Te  0.000370  0.118792  0.500000
Mo707  Mo  0.004158  0.125371  0.482988
Te1414  Te  0.000370  0.118792  0.465975
Te1415  Te  0.011733  0.125371  0.500000
Mo708  Mo  0.015521  0.118792  0.482988
Te1416  Te  0.011733  0.125371  0.465975
Te1417  Te  0.000370  0.131950  0.500000
Mo709  Mo  0.004158  0.138529  0.482988
Te1418  Te  0.000370  0.131950  0.465975
Te1419  Te  0.011733  0.138529  0.500000
Mo710  Mo  0.015521  0.131950  0.482988
Te1420  Te  0.011733  0.138529  0.465975
Te1421  Te  0.000370  0.145107  0.500000
Mo711  Mo  0.004158  0.151686  0.482988
Te1422  Te  0.000370  0.145107  0.465975
Te1423  Te  0.011733  0.151686  0.500000
Mo712  Mo  0.015521  0.145107  0.482988
Te1424  Te  0.011733  0.151686  0.465975
Te1425  Te  0.023097  0.105634  0.500000
Mo713  Mo  0.026885  0.112213  0.482988
Te1426  Te  0.023097  0.105634  0.465975
Te1427  Te  0.034461  0.112213  0.500000
Mo714  Mo  0.038249  0.105634  0.482988
Te1428  Te  0.034461  0.112213  0.465975
Te1429  Te  0.023097  0.118792  0.500000
Mo715  Mo  0.026885  0.125371  0.482988
Te1430  Te  0.023097  0.118792  0.465975
Te1431  Te  0.034461  0.125371  0.500000
Mo716  Mo  0.038249  0.118792  0.482988
Te1432  Te  0.034461  0.125371  0.465975
Te1433  Te  0.023097  0.131950  0.500000
Mo717  Mo  0.026885  0.138529  0.482988
Te1434  Te  0.023097  0.131950  0.465975
Te1435  Te  0.034461  0.138529  0.500000
Mo718  Mo  0.038249  0.131950  0.482988
Te1436  Te  0.034461  0.138529  0.465975
Te1437  Te  0.023097  0.145107  0.500000
Mo719  Mo  0.026885  0.151686  0.482988
Te1438  Te  0.023097  0.145107  0.465975
Te1439  Te  0.034461  0.151686  0.500000
Mo720  Mo  0.038249  0.145107  0.482988
Te1440  Te  0.034461  0.151686  0.465975
Te1441  Te  0.045824  0.105634  0.500000
Mo721  Mo  0.049612  0.112213  0.482988
Te1442  Te  0.045824  0.105634  0.465975
Te1443  Te  0.057188  0.112213  0.500000
Mo722  Mo  0.060976  0.105634  0.482988
Te1444  Te  0.057188  0.112213  0.465975
Te1445  Te  0.045824  0.118792  0.500000
Mo723  Mo  0.049612  0.125371  0.482988
Te1446  Te  0.045824  0.118792  0.465975
Te1447  Te  0.057188  0.125371  0.500000
Mo724  Mo  0.060976  0.118792  0.482988
Te1448  Te  0.057188  0.125371  0.465975
Te1449  Te  0.045824  0.131950  0.500000
Mo725  Mo  0.049612  0.138529  0.482988
Te1450  Te  0.045824  0.131950  0.465975
Te1451  Te  0.057188  0.138529  0.500000
Mo726  Mo  0.060976  0.131950  0.482988
Te1452  Te  0.057188  0.138529  0.465975
Te1453  Te  0.045824  0.145107  0.500000
Mo727  Mo  0.049612  0.151686  0.482988
Te1454  Te  0.045824  0.145107  0.465975
Te1455  Te  0.057188  0.151686  0.500000
Mo728  Mo  0.060976  0.145107  0.482988
Te1456  Te  0.057188  0.151686  0.465975
Te1457  Te  0.068552  0.105634  0.500000
Mo729  Mo  0.072339  0.112213  0.482988
Te1458  Te  0.068552  0.105634  0.465975
Te1459  Te  0.079915  0.112213  0.500000
Mo730  Mo  0.083703  0.105634  0.482988
Te1460  Te  0.079915  0.112213  0.465975
Te1461  Te  0.068552  0.118792  0.500000
Mo731  Mo  0.072339  0.125371  0.482988
Te1462  Te  0.068552  0.118792  0.465975
Te1463  Te  0.079915  0.125371  0.500000
Mo732  Mo  0.083703  0.118792  0.482988
Te1464  Te  0.079915  0.125371  0.465975
Te1465  Te  0.068552  0.131950  0.500000
Mo733  Mo  0.072339  0.138529  0.482988
Te1466  Te  0.068552  0.131950  0.465975
Te1467  Te  0.079915  0.138529  0.500000
Mo734  Mo  0.083703  0.131950  0.482988
Te1468  Te  0.079915  0.138529  0.465975
Te1469  Te  0.068552  0.145107  0.500000
Mo735  Mo  0.072339  0.151686  0.482988
Te1470  Te  0.068552  0.145107  0.465975
Te1471  Te  0.079915  0.151686  0.500000
Mo736  Mo  0.083703  0.145107  0.482988
Te1472  Te  0.079915  0.151686  0.465975
Te1473  Te  0.091279  0.105634  0.500000
Mo737  Mo  0.095067  0.112213  0.482988
Te1474  Te  0.091279  0.105634  0.465975
Te1475  Te  0.102642  0.112213  0.500000
Mo738  Mo  0.106430  0.105634  0.482988
Te1476  Te  0.102642  0.112213  0.465975
Te1477  Te  0.091279  0.118792  0.500000
Mo739  Mo  0.095067  0.125371  0.482988
Te1478  Te  0.091279  0.118792  0.465975
Te1479  Te  0.102642  0.125371  0.500000
Mo740  Mo  0.106430  0.118792  0.482988
Te1480  Te  0.102642  0.125371  0.465975
Te1481  Te  0.091279  0.131950  0.500000
Mo741  Mo  0.095067  0.138529  0.482988
Te1482  Te  0.091279  0.131950  0.465975
Te1483  Te  0.102642  0.138529  0.500000
Mo742  Mo  0.106430  0.131950  0.482988
Te1484  Te  0.102642  0.138529  0.465975
Te1485  Te  0.091279  0.145107  0.500000
Mo743  Mo  0.095067  0.151686  0.482988
Te1486  Te  0.091279  0.145107  0.465975
Te1487  Te  0.102642  0.151686  0.500000
Mo744  Mo  0.106430  0.145107  0.482988
Te1488  Te  0.102642  0.151686  0.465975
Te1489  Te  0.114006  0.105634  0.500000
Mo745  Mo  0.117794  0.112213  0.482988
Te1490  Te  0.114006  0.105634  0.465975
Te1491  Te  0.125370  0.112213  0.500000
Mo746  Mo  0.129158  0.105634  0.482988
Te1492  Te  0.125370  0.112213  0.465975
Te1493  Te  0.114006  0.118792  0.500000
Mo747  Mo  0.117794  0.125371  0.482988
Te1494  Te  0.114006  0.118792  0.465975
Te1495  Te  0.125370  0.125371  0.500000
Mo748  Mo  0.129158  0.118792  0.482988
Te1496  Te  0.125370  0.125371  0.465975
Te1497  Te  0.114006  0.131950  0.500000
Mo749  Mo  0.117794  0.138529  0.482988
Te1498  Te  0.114006  0.131950  0.465975
Te1499  Te  0.125370  0.138529  0.500000
Mo750  Mo  0.129158  0.131950  0.482988
Te1500  Te  0.125370  0.138529  0.465975
Te1501  Te  0.114006  0.145107  0.500000
Mo751  Mo  0.117794  0.151686  0.482988
Te1502  Te  0.114006  0.145107  0.465975
Te1503  Te  0.125370  0.151686  0.500000
Mo752  Mo  0.129158  0.145107  0.482988
Te1504  Te  0.125370  0.151686  0.465975
Te1505  Te  0.136733  0.105634  0.500000
Mo753  Mo  0.140521  0.112213  0.482988
Te1506  Te  0.136733  0.105634  0.465975
Te1507  Te  0.148097  0.112213  0.500000
Mo754  Mo  0.151885  0.105634  0.482988
Te1508  Te  0.148097  0.112213  0.465975
Te1509  Te  0.136733  0.118792  0.500000
Mo755  Mo  0.140521  0.125371  0.482988
Te1510  Te  0.136733  0.118792  0.465975
Te1511  Te  0.148097  0.125371  0.500000
Mo756  Mo  0.151885  0.118792  0.482988
Te1512  Te  0.148097  0.125371  0.465975
Te1513  Te  0.136733  0.131950  0.500000
Mo757  Mo  0.140521  0.138529  0.482988
Te1514  Te  0.136733  0.131950  0.465975
Te1515  Te  0.148097  0.138529  0.500000
Mo758  Mo  0.151885  0.131950  0.482988
Te1516  Te  0.148097  0.138529  0.465975
Te1517  Te  0.136733  0.145107  0.500000
Mo759  Mo  0.140521  0.151686  0.482988
Te1518  Te  0.136733  0.145107  0.465975
Te1519  Te  0.148097  0.151686  0.500000
Mo760  Mo  0.151885  0.145107  0.482988
Te1520  Te  0.148097  0.151686  0.465975
Te1521  Te  0.159461  0.105634  0.500000
Mo761  Mo  0.163248  0.112213  0.482988
Te1522  Te  0.159461  0.105634  0.465975
Te1523  Te  0.170824  0.112213  0.500000
Mo762  Mo  0.174612  0.105634  0.482988
Te1524  Te  0.170824  0.112213  0.465975
Te1525  Te  0.159461  0.118792  0.500000
Mo763  Mo  0.163248  0.125371  0.482988
Te1526  Te  0.159461  0.118792  0.465975
Te1527  Te  0.170824  0.125371  0.500000
Mo764  Mo  0.174612  0.118792  0.482988
Te1528  Te  0.170824  0.125371  0.465975
Te1529  Te  0.159461  0.131950  0.500000
Mo765  Mo  0.163248  0.138529  0.482988
Te1530  Te  0.159461  0.131950  0.465975
Te1531  Te  0.170824  0.138529  0.500000
Mo766  Mo  0.174612  0.131950  0.482988
Te1532  Te  0.170824  0.138529  0.465975
Te1533  Te  0.159461  0.145107  0.500000
Mo767  Mo  0.163248  0.151686  0.482988
Te1534  Te  0.159461  0.145107  0.465975
Te1535  Te  0.170824  0.151686  0.500000
Mo768  Mo  0.174612  0.145107  0.482988
Te1536  Te  0.170824  0.151686  0.465975
Te1537  Te  0.182188  0.105634  0.500000
Mo769  Mo  0.185976  0.112213  0.482988
Te1538  Te  0.182188  0.105634  0.465975
Te1539  Te  0.193551  0.112213  0.500000
Mo770  Mo  0.197339  0.105634  0.482988
Te1540  Te  0.193551  0.112213  0.465975
Te1541  Te  0.182188  0.118792  0.500000
Mo771  Mo  0.185976  0.125371  0.482988
Te1542  Te  0.182188  0.118792  0.465975
Te1543  Te  0.193551  0.125371  0.500000
Mo772  Mo  0.197339  0.118792  0.482988
Te1544  Te  0.193551  0.125371  0.465975
Te1545  Te  0.182188  0.131950  0.500000
Mo773  Mo  0.185976  0.138529  0.482988
Te1546  Te  0.182188  0.131950  0.465975
Te1547  Te  0.193551  0.138529  0.500000
Mo774  Mo  0.197339  0.131950  0.482988
Te1548  Te  0.193551  0.138529  0.465975
Te1549  Te  0.182188  0.145107  0.500000
Mo775  Mo  0.185976  0.151686  0.482988
Te1550  Te  0.182188  0.145107  0.465975
Te1551  Te  0.193551  0.151686  0.500000
Mo776  Mo  0.197339  0.145107  0.482988
Te1552  Te  0.193551  0.151686  0.465975
Te1553  Te  0.204915  0.105634  0.500000
Mo777  Mo  0.208703  0.112213  0.482988
Te1554  Te  0.204915  0.105634  0.465975
Te1555  Te  0.216279  0.112213  0.500000
Mo778  Mo  0.220067  0.105634  0.482988
Te1556  Te  0.216279  0.112213  0.465975
Te1557  Te  0.204915  0.118792  0.500000
Mo779  Mo  0.208703  0.125371  0.482988
Te1558  Te  0.204915  0.118792  0.465975
Te1559  Te  0.216279  0.125371  0.500000
Mo780  Mo  0.220067  0.118792  0.482988
Te1560  Te  0.216279  0.125371  0.465975
Te1561  Te  0.204915  0.131950  0.500000
Mo781  Mo  0.208703  0.138529  0.482988
Te1562  Te  0.204915  0.131950  0.465975
Te1563  Te  0.216279  0.138529  0.500000
Mo782  Mo  0.220067  0.131950  0.482988
Te1564  Te  0.216279  0.138529  0.465975
Te1565  Te  0.204915  0.145107  0.500000
Mo783  Mo  0.208703  0.151686  0.482988
Te1566  Te  0.204915  0.145107  0.465975
Te1567  Te  0.216279  0.151686  0.500000
Mo784  Mo  0.220067  0.145107  0.482988
Te1568  Te  0.216279  0.151686  0.465975
Te1569  Te  0.227642  0.105634  0.500000
Mo785  Mo  0.231430  0.112213  0.482988
Te1570  Te  0.227642  0.105634  0.465975
Te1571  Te  0.239006  0.112213  0.500000
Mo786  Mo  0.242794  0.105634  0.482988
Te1572  Te  0.239006  0.112213  0.465975
Te1573  Te  0.227642  0.118792  0.500000
Mo787  Mo  0.231430  0.125371  0.482988
Te1574  Te  0.227642  0.118792  0.465975
Te1575  Te  0.239006  0.125371  0.500000
Mo788  Mo  0.242794  0.118792  0.482988
Te1576  Te  0.239006  0.125371  0.465975
Te1577  Te  0.227642  0.131950  0.500000
Mo789  Mo  0.231430  0.138529  0.482988
Te1578  Te  0.227642  0.131950  0.465975
Te1579  Te  0.239006  0.138529  0.500000
Mo790  Mo  0.242794  0.131950  0.482988
Te1580  Te  0.239006  0.138529  0.465975
Te1581  Te  0.227642  0.145107  0.500000
Mo791  Mo  0.231430  0.151686  0.482988
Te1582  Te  0.227642  0.145107  0.465975
Te1583  Te  0.239006  0.151686  0.500000
Mo792  Mo  0.242794  0.145107  0.482988
Te1584  Te  0.239006  0.151686  0.465975
Te1585  Te  0.250370  0.105634  0.500000
Mo793  Mo  0.254158  0.112213  0.482988
Te1586  Te  0.250370  0.105634  0.465975
Te1587  Te  0.261733  0.112213  0.500000
Mo794  Mo  0.265521  0.105634  0.482988
Te1588  Te  0.261733  0.112213  0.465975
Te1589  Te  0.250370  0.118792  0.500000
Mo795  Mo  0.254158  0.125371  0.482988
Te1590  Te  0.250370  0.118792  0.465975
Te1591  Te  0.261733  0.125371  0.500000
Mo796  Mo  0.265521  0.118792  0.482988
Te1592  Te  0.261733  0.125371  0.465975
Te1593  Te  0.250370  0.131950  0.500000
Mo797  Mo  0.254158  0.138529  0.482988
Te1594  Te  0.250370  0.131950  0.465975
Te1595  Te  0.261733  0.138529  0.500000
Mo798  Mo  0.265521  0.131950  0.482988
Te1596  Te  0.261733  0.138529  0.465975
Te1597  Te  0.250370  0.145107  0.500000
Mo799  Mo  0.254158  0.151686  0.482988
Te1598  Te  0.250370  0.145107  0.465975
Te1599  Te  0.261733  0.151686  0.500000
Mo800  Mo  0.265521  0.145107  0.482988
Te1600  Te  0.261733  0.151686  0.465975
Te1601  Te  0.273097  0.105634  0.500000
Mo801  Mo  0.276885  0.112213  0.482988
Te1602  Te  0.273097  0.105634  0.465975
Te1603  Te  0.284461  0.112213  0.500000
Mo802  Mo  0.288248  0.105634  0.482988
Te1604  Te  0.284461  0.112213  0.465975
Te1605  Te  0.273097  0.118792  0.500000
Mo803  Mo  0.276885  0.125371  0.482988
Te1606  Te  0.273097  0.118792  0.465975
Te1607  Te  0.284461  0.125371  0.500000
Mo804  Mo  0.288248  0.118792  0.482988
Te1608  Te  0.284461  0.125371  0.465975
Te1609  Te  0.273097  0.131950  0.500000
Mo805  Mo  0.276885  0.138529  0.482988
Te1610  Te  0.273097  0.131950  0.465975
Te1611  Te  0.284461  0.138529  0.500000
Mo806  Mo  0.288248  0.131950  0.482988
Te1612  Te  0.284461  0.138529  0.465975
Te1613  Te  0.273097  0.145107  0.500000
Mo807  Mo  0.276885  0.151686  0.482988
Te1614  Te  0.273097  0.145107  0.465975
Te1615  Te  0.284461  0.151686  0.500000
Mo808  Mo  0.288248  0.145107  0.482988
Te1616  Te  0.284461  0.151686  0.465975
Te1617  Te  0.295824  0.105634  0.500000
Mo809  Mo  0.299612  0.112213  0.482988
Te1618  Te  0.295824  0.105634  0.465975
Te1619  Te  0.307188  0.112213  0.500000
Mo810  Mo  0.310976  0.105634  0.482988
Te1620  Te  0.307188  0.112213  0.465975
Te1621  Te  0.295824  0.118792  0.500000
Mo811  Mo  0.299612  0.125371  0.482988
Te1622  Te  0.295824  0.118792  0.465975
Te1623  Te  0.307188  0.125371  0.500000
Mo812  Mo  0.310976  0.118792  0.482988
Te1624  Te  0.307188  0.125371  0.465975
Te1625  Te  0.295824  0.131950  0.500000
Mo813  Mo  0.299612  0.138529  0.482988
Te1626  Te  0.295824  0.131950  0.465975
Te1627  Te  0.307188  0.138529  0.500000
Mo814  Mo  0.310976  0.131950  0.482988
Te1628  Te  0.307188  0.138529  0.465975
Te1629  Te  0.295824  0.145107  0.500000
Mo815  Mo  0.299612  0.151686  0.482988
Te1630  Te  0.295824  0.145107  0.465975
Te1631  Te  0.307188  0.151686  0.500000
Mo816  Mo  0.310976  0.145107  0.482988
Te1632  Te  0.307188  0.151686  0.465975
Te1633  Te  0.318551  0.105634  0.500000
Mo817  Mo  0.322339  0.112213  0.482988
Te1634  Te  0.318551  0.105634  0.465975
Te1635  Te  0.329915  0.112213  0.500000
Mo818  Mo  0.333703  0.105634  0.482988
Te1636  Te  0.329915  0.112213  0.465975
Te1637  Te  0.318551  0.118792  0.500000
Mo819  Mo  0.322339  0.125371  0.482988
Te1638  Te  0.318551  0.118792  0.465975
Te1639  Te  0.329915  0.125371  0.500000
Mo820  Mo  0.333703  0.118792  0.482988
Te1640  Te  0.329915  0.125371  0.465975
Te1641  Te  0.318551  0.131950  0.500000
Mo821  Mo  0.322339  0.138529  0.482988
Te1642  Te  0.318551  0.131950  0.465975
Te1643  Te  0.329915  0.138529  0.500000
Mo822  Mo  0.333703  0.131950  0.482988
Te1644  Te  0.329915  0.138529  0.465975
Te1645  Te  0.318551  0.145107  0.500000
Mo823  Mo  0.322339  0.151686  0.482988
Te1646  Te  0.318551  0.145107  0.465975
Te1647  Te  0.329915  0.151686  0.500000
Mo824  Mo  0.333703  0.145107  0.482988
Te1648  Te  0.329915  0.151686  0.465975
Te1649  Te  0.341279  0.105634  0.500000
Mo825  Mo  0.345067  0.112213  0.482988
Te1650  Te  0.341279  0.105634  0.465975
Te1651  Te  0.352642  0.112213  0.500000
Mo826  Mo  0.356430  0.105634  0.482988
Te1652  Te  0.352642  0.112213  0.465975
Te1653  Te  0.341279  0.118792  0.500000
Mo827  Mo  0.345067  0.125371  0.482988
Te1654  Te  0.341279  0.118792  0.465975
Te1655  Te  0.352642  0.125371  0.500000
Mo828  Mo  0.356430  0.118792  0.482988
Te1656  Te  0.352642  0.125371  0.465975
Te1657  Te  0.341279  0.131950  0.500000
Mo829  Mo  0.345067  0.138529  0.482988
Te1658  Te  0.341279  0.131950  0.465975
Te1659  Te  0.352642  0.138529  0.500000
Mo830  Mo  0.356430  0.131950  0.482988
Te1660  Te  0.352642  0.138529  0.465975
Te1661  Te  0.341279  0.145107  0.500000
Mo831  Mo  0.345067  0.151686  0.482988
Te1662  Te  0.341279  0.145107  0.465975
Te1663  Te  0.352642  0.151686  0.500000
Mo832  Mo  0.356430  0.145107  0.482988
Te1664  Te  0.352642  0.151686  0.465975
Te1665  Te  0.364006  0.105634  0.500000
Mo833  Mo  0.367794  0.112213  0.482988
Te1666  Te  0.364006  0.105634  0.465975
Te1667  Te  0.375370  0.112213  0.500000
Mo834  Mo  0.379158  0.105634  0.482988
Te1668  Te  0.375370  0.112213  0.465975
Te1669  Te  0.364006  0.118792  0.500000
Mo835  Mo  0.367794  0.125371  0.482988
Te1670  Te  0.364006  0.118792  0.465975
Te1671  Te  0.375370  0.125371  0.500000
Mo836  Mo  0.379158  0.118792  0.482988
Te1672  Te  0.375370  0.125371  0.465975
Te1673  Te  0.364006  0.131950  0.500000
Mo837  Mo  0.367794  0.138529  0.482988
Te1674  Te  0.364006  0.131950  0.465975
Te1675  Te  0.375370  0.138529  0.500000
Mo838  Mo  0.379158  0.131950  0.482988
Te1676  Te  0.375370  0.138529  0.465975
Te1677  Te  0.364006  0.145107  0.500000
Mo839  Mo  0.367794  0.151686  0.482988
Te1678  Te  0.364006  0.145107  0.465975
Te1679  Te  0.375370  0.151686  0.500000
Mo840  Mo  0.379158  0.145107  0.482988
Te1680  Te  0.375370  0.151686  0.465975
Te1681  Te  0.386733  0.105634  0.500000
Mo841  Mo  0.390521  0.112213  0.482988
Te1682  Te  0.386733  0.105634  0.465975
Te1683  Te  0.398097  0.112213  0.500000
Mo842  Mo  0.401885  0.105634  0.482988
Te1684  Te  0.398097  0.112213  0.465975
Te1685  Te  0.386733  0.118792  0.500000
Mo843  Mo  0.390521  0.125371  0.482988
Te1686  Te  0.386733  0.118792  0.465975
Te1687  Te  0.398097  0.125371  0.500000
Mo844  Mo  0.401885  0.118792  0.482988
Te1688  Te  0.398097  0.125371  0.465975
Te1689  Te  0.386733  0.131950  0.500000
Mo845  Mo  0.390521  0.138529  0.482988
Te1690  Te  0.386733  0.131950  0.465975
Te1691  Te  0.398097  0.138529  0.500000
Mo846  Mo  0.401885  0.131950  0.482988
Te1692  Te  0.398097  0.138529  0.465975
Te1693  Te  0.386733  0.145107  0.500000
Mo847  Mo  0.390521  0.151686  0.482988
Te1694  Te  0.386733  0.145107  0.465975
Te1695  Te  0.398097  0.151686  0.500000
Mo848  Mo  0.401885  0.145107  0.482988
Te1696  Te  0.398097  0.151686  0.465975
Te1697  Te  0.409461  0.105634  0.500000
Mo849  Mo  0.413248  0.112213  0.482988
Te1698  Te  0.409461  0.105634  0.465975
Te1699  Te  0.420824  0.112213  0.500000
Mo850  Mo  0.424612  0.105634  0.482988
Te1700  Te  0.420824  0.112213  0.465975
Te1701  Te  0.409461  0.118792  0.500000
Mo851  Mo  0.413248  0.125371  0.482988
Te1702  Te  0.409461  0.118792  0.465975
Te1703  Te  0.420824  0.125371  0.500000
Mo852  Mo  0.424612  0.118792  0.482988
Te1704  Te  0.420824  0.125371  0.465975
Te1705  Te  0.409461  0.131950  0.500000
Mo853  Mo  0.413248  0.138529  0.482988
Te1706  Te  0.409461  0.131950  0.465975
Te1707  Te  0.420824  0.138529  0.500000
Mo854  Mo  0.424612  0.131950  0.482988
Te1708  Te  0.420824  0.138529  0.465975
Te1709  Te  0.409461  0.145107  0.500000
Mo855  Mo  0.413248  0.151686  0.482988
Te1710  Te  0.409461  0.145107  0.465975
Te1711  Te  0.420824  0.151686  0.500000
Mo856  Mo  0.424612  0.145107  0.482988
Te1712  Te  0.420824  0.151686  0.465975
Te1713  Te  0.432188  0.105634  0.500000
Mo857  Mo  0.435976  0.112213  0.482988
Te1714  Te  0.432188  0.105634  0.465975
Te1715  Te  0.443552  0.112213  0.500000
Mo858  Mo  0.447339  0.105634  0.482988
Te1716  Te  0.443552  0.112213  0.465975
Te1717  Te  0.432188  0.118792  0.500000
Mo859  Mo  0.435976  0.125371  0.482988
Te1718  Te  0.432188  0.118792  0.465975
Te1719  Te  0.443552  0.125371  0.500000
Mo860  Mo  0.447339  0.118792  0.482988
Te1720  Te  0.443552  0.125371  0.465975
Te1721  Te  0.432188  0.131950  0.500000
Mo861  Mo  0.435976  0.138529  0.482988
Te1722  Te  0.432188  0.131950  0.465975
Te1723  Te  0.443552  0.138529  0.500000
Mo862  Mo  0.447339  0.131950  0.482988
Te1724  Te  0.443552  0.138529  0.465975
Te1725  Te  0.432188  0.145107  0.500000
Mo863  Mo  0.435976  0.151686  0.482988
Te1726  Te  0.432188  0.145107  0.465975
Te1727  Te  0.443552  0.151686  0.500000
Mo864  Mo  0.447339  0.145107  0.482988
Te1728  Te  0.443552  0.151686  0.465975
Te1729  Te  0.454915  0.105634  0.500000
Mo865  Mo  0.458703  0.112213  0.482988
Te1730  Te  0.454915  0.105634  0.465975
Te1731  Te  0.466279  0.112213  0.500000
Mo866  Mo  0.470067  0.105634  0.482988
Te1732  Te  0.466279  0.112213  0.465975
Te1733  Te  0.454915  0.118792  0.500000
Mo867  Mo  0.458703  0.125371  0.482988
Te1734  Te  0.454915  0.118792  0.465975
Te1735  Te  0.466279  0.125371  0.500000
Mo868  Mo  0.470067  0.118792  0.482988
Te1736  Te  0.466279  0.125371  0.465975
Te1737  Te  0.454915  0.131950  0.500000
Mo869  Mo  0.458703  0.138529  0.482988
Te1738  Te  0.454915  0.131950  0.465975
Te1739  Te  0.466279  0.138529  0.500000
Mo870  Mo  0.470067  0.131950  0.482988
Te1740  Te  0.466279  0.138529  0.465975
Te1741  Te  0.454915  0.145107  0.500000
Mo871  Mo  0.458703  0.151686  0.482988
Te1742  Te  0.454915  0.145107  0.465975
Te1743  Te  0.466279  0.151686  0.500000
Mo872  Mo  0.470067  0.145107  0.482988
Te1744  Te  0.466279  0.151686  0.465975
Te1745  Te  0.477642  0.105634  0.500000
Mo873  Mo  0.481430  0.112213  0.482988
Te1746  Te  0.477642  0.105634  0.465975
Te1747  Te  0.489006  0.112213  0.500000
Mo874  Mo  0.492794  0.105634  0.482988
Te1748  Te  0.489006  0.112213  0.465975
Te1749  Te  0.477642  0.118792  0.500000
Mo875  Mo  0.481430  0.125371  0.482988
Te1750  Te  0.477642  0.118792  0.465975
Te1751  Te  0.489006  0.125371  0.500000
Mo876  Mo  0.492794  0.118792  0.482988
Te1752  Te  0.489006  0.125371  0.465975
Te1753  Te  0.477642  0.131950  0.500000
Mo877  Mo  0.481430  0.138529  0.482988
Te1754  Te  0.477642  0.131950  0.465975
Te1755  Te  0.489006  0.138529  0.500000
Mo878  Mo  0.492794  0.131950  0.482988
Te1756  Te  0.489006  0.138529  0.465975
Te1757  Te  0.477642  0.145107  0.500000
Mo879  Mo  0.481430  0.151686  0.482988
Te1758  Te  0.477642  0.145107  0.465975
Te1759  Te  0.489006  0.151686  0.500000
Mo880  Mo  0.492794  0.145107  0.482988
Te1760  Te  0.489006  0.151686  0.465975
Te1761  Te  0.500370  0.105634  0.500000
Mo881  Mo  0.504158  0.112213  0.482988
Te1762  Te  0.500370  0.105634  0.465975
Te1763  Te  0.511733  0.112213  0.500000
Mo882  Mo  0.515521  0.105634  0.482988
Te1764  Te  0.511733  0.112213  0.465975
Te1765  Te  0.500370  0.118792  0.500000
Mo883  Mo  0.504158  0.125371  0.482988
Te1766  Te  0.500370  0.118792  0.465975
Te1767  Te  0.511733  0.125371  0.500000
Mo884  Mo  0.515521  0.118792  0.482988
Te1768  Te  0.511733  0.125371  0.465975
Te1769  Te  0.500370  0.131950  0.500000
Mo885  Mo  0.504158  0.138529  0.482988
Te1770  Te  0.500370  0.131950  0.465975
Te1771  Te  0.511733  0.138529  0.500000
Mo886  Mo  0.515521  0.131950  0.482988
Te1772  Te  0.511733  0.138529  0.465975
Te1773  Te  0.500370  0.145107  0.500000
Mo887  Mo  0.504158  0.151686  0.482988
Te1774  Te  0.500370  0.145107  0.465975
Te1775  Te  0.511733  0.151686  0.500000
Mo888  Mo  0.515521  0.145107  0.482988
Te1776  Te  0.511733  0.151686  0.465975
Te1777  Te  0.523097  0.105634  0.500000
Mo889  Mo  0.526885  0.112213  0.482988
Te1778  Te  0.523097  0.105634  0.465975
Te1779  Te  0.534461  0.112213  0.500000
Mo890  Mo  0.538249  0.105634  0.482988
Te1780  Te  0.534461  0.112213  0.465975
Te1781  Te  0.523097  0.118792  0.500000
Mo891  Mo  0.526885  0.125371  0.482988
Te1782  Te  0.523097  0.118792  0.465975
Te1783  Te  0.534461  0.125371  0.500000
Mo892  Mo  0.538249  0.118792  0.482988
Te1784  Te  0.534461  0.125371  0.465975
Te1785  Te  0.523097  0.131950  0.500000
Mo893  Mo  0.526885  0.138529  0.482988
Te1786  Te  0.523097  0.131950  0.465975
Te1787  Te  0.534461  0.138529  0.500000
Mo894  Mo  0.538249  0.131950  0.482988
Te1788  Te  0.534461  0.138529  0.465975
Te1789  Te  0.523097  0.145107  0.500000
Mo895  Mo  0.526885  0.151686  0.482988
Te1790  Te  0.523097  0.145107  0.465975
Te1791  Te  0.534461  0.151686  0.500000
Mo896  Mo  0.538249  0.145107  0.482988
Te1792  Te  0.534461  0.151686  0.465975
Te1793  Te  0.545824  0.105634  0.500000
Mo897  Mo  0.549612  0.112213  0.482988
Te1794  Te  0.545824  0.105634  0.465975
Te1795  Te  0.557188  0.112213  0.500000
Mo898  Mo  0.560976  0.105634  0.482988
Te1796  Te  0.557188  0.112213  0.465975
Te1797  Te  0.545824  0.118792  0.500000
Mo899  Mo  0.549612  0.125371  0.482988
Te1798  Te  0.545824  0.118792  0.465975
Te1799  Te  0.557188  0.125371  0.500000
Mo900  Mo  0.560976  0.118792  0.482988
Te1800  Te  0.557188  0.125371  0.465975
Te1801  Te  0.545824  0.131950  0.500000
Mo901  Mo  0.549612  0.138529  0.482988
Te1802  Te  0.545824  0.131950  0.465975
Te1803  Te  0.557188  0.138529  0.500000
Mo902  Mo  0.560976  0.131950  0.482988
Te1804  Te  0.557188  0.138529  0.465975
Te1805  Te  0.545824  0.145107  0.500000
Mo903  Mo  0.549612  0.151686  0.482988
Te1806  Te  0.545824  0.145107  0.465975
Te1807  Te  0.557188  0.151686  0.500000
Mo904  Mo  0.560976  0.145107  0.482988
Te1808  Te  0.557188  0.151686  0.465975
Te1809  Te  0.568552  0.105634  0.500000
Mo905  Mo  0.572339  0.112213  0.482988
Te1810  Te  0.568552  0.105634  0.465975
Te1811  Te  0.579915  0.112213  0.500000
Mo906  Mo  0.583703  0.105634  0.482988
Te1812  Te  0.579915  0.112213  0.465975
Te1813  Te  0.568552  0.118792  0.500000
Mo907  Mo  0.572339  0.125371  0.482988
Te1814  Te  0.568552  0.118792  0.465975
Te1815  Te  0.579915  0.125371  0.500000
Mo908  Mo  0.583703  0.118792  0.482988
Te1816  Te  0.579915  0.125371  0.465975
Te1817  Te  0.568552  0.131950  0.500000
Mo909  Mo  0.572339  0.138529  0.482988
Te1818  Te  0.568552  0.131950  0.465975
Te1819  Te  0.579915  0.138529  0.500000
Mo910  Mo  0.583703  0.131950  0.482988
Te1820  Te  0.579915  0.138529  0.465975
Te1821  Te  0.568552  0.145107  0.500000
Mo911  Mo  0.572339  0.151686  0.482988
Te1822  Te  0.568552  0.145107  0.465975
Te1823  Te  0.579915  0.151686  0.500000
Mo912  Mo  0.583703  0.145107  0.482988
Te1824  Te  0.579915  0.151686  0.465975
Te1825  Te  0.591279  0.105634  0.500000
Mo913  Mo  0.595067  0.112213  0.482988
Te1826  Te  0.591279  0.105634  0.465975
Te1827  Te  0.602642  0.112213  0.500000
Mo914  Mo  0.606430  0.105634  0.482988
Te1828  Te  0.602642  0.112213  0.465975
Te1829  Te  0.591279  0.118792  0.500000
Mo915  Mo  0.595067  0.125371  0.482988
Te1830  Te  0.591279  0.118792  0.465975
Te1831  Te  0.602642  0.125371  0.500000
Mo916  Mo  0.606430  0.118792  0.482988
Te1832  Te  0.602642  0.125371  0.465975
Te1833  Te  0.591279  0.131950  0.500000
Mo917  Mo  0.595067  0.138529  0.482988
Te1834  Te  0.591279  0.131950  0.465975
Te1835  Te  0.602642  0.138529  0.500000
Mo918  Mo  0.606430  0.131950  0.482988
Te1836  Te  0.602642  0.138529  0.465975
Te1837  Te  0.591279  0.145107  0.500000
Mo919  Mo  0.595067  0.151686  0.482988
Te1838  Te  0.591279  0.145107  0.465975
Te1839  Te  0.602642  0.151686  0.500000
Mo920  Mo  0.606430  0.145107  0.482988
Te1840  Te  0.602642  0.151686  0.465975
Te1841  Te  0.614006  0.105634  0.500000
Mo921  Mo  0.617794  0.112213  0.482988
Te1842  Te  0.614006  0.105634  0.465975
Te1843  Te  0.625370  0.112213  0.500000
Mo922  Mo  0.629158  0.105634  0.482988
Te1844  Te  0.625370  0.112213  0.465975
Te1845  Te  0.614006  0.118792  0.500000
Mo923  Mo  0.617794  0.125371  0.482988
Te1846  Te  0.614006  0.118792  0.465975
Te1847  Te  0.625370  0.125371  0.500000
Mo924  Mo  0.629158  0.118792  0.482988
Te1848  Te  0.625370  0.125371  0.465975
Te1849  Te  0.614006  0.131950  0.500000
Mo925  Mo  0.617794  0.138529  0.482988
Te1850  Te  0.614006  0.131950  0.465975
Te1851  Te  0.625370  0.138529  0.500000
Mo926  Mo  0.629158  0.131950  0.482988
Te1852  Te  0.625370  0.138529  0.465975
Te1853  Te  0.614006  0.145107  0.500000
Mo927  Mo  0.617794  0.151686  0.482988
Te1854  Te  0.614006  0.145107  0.465975
Te1855  Te  0.625370  0.151686  0.500000
Mo928  Mo  0.629158  0.145107  0.482988
Te1856  Te  0.625370  0.151686  0.465975
Te1857  Te  0.636733  0.105634  0.500000
Mo929  Mo  0.640521  0.112213  0.482988
Te1858  Te  0.636733  0.105634  0.465975
Te1859  Te  0.648097  0.112213  0.500000
Mo930  Mo  0.651885  0.105634  0.482988
Te1860  Te  0.648097  0.112213  0.465975
Te1861  Te  0.636733  0.118792  0.500000
Mo931  Mo  0.640521  0.125371  0.482988
Te1862  Te  0.636733  0.118792  0.465975
Te1863  Te  0.648097  0.125371  0.500000
Mo932  Mo  0.651885  0.118792  0.482988
Te1864  Te  0.648097  0.125371  0.465975
Te1865  Te  0.636733  0.131950  0.500000
Mo933  Mo  0.640521  0.138529  0.482988
Te1866  Te  0.636733  0.131950  0.465975
Te1867  Te  0.648097  0.138529  0.500000
Mo934  Mo  0.651885  0.131950  0.482988
Te1868  Te  0.648097  0.138529  0.465975
Te1869  Te  0.636733  0.145107  0.500000
Mo935  Mo  0.640521  0.151686  0.482988
Te1870  Te  0.636733  0.145107  0.465975
Te1871  Te  0.648097  0.151686  0.500000
Mo936  Mo  0.651885  0.145107  0.482988
Te1872  Te  0.648097  0.151686  0.465975
Te1873  Te  0.659461  0.105634  0.500000
Mo937  Mo  0.663248  0.112213  0.482988
Te1874  Te  0.659461  0.105634  0.465975
Te1875  Te  0.670824  0.112213  0.500000
Mo938  Mo  0.674612  0.105634  0.482988
Te1876  Te  0.670824  0.112213  0.465975
Te1877  Te  0.659461  0.118792  0.500000
Mo939  Mo  0.663248  0.125371  0.482988
Te1878  Te  0.659461  0.118792  0.465975
Te1879  Te  0.670824  0.125371  0.500000
Mo940  Mo  0.674612  0.118792  0.482988
Te1880  Te  0.670824  0.125371  0.465975
Te1881  Te  0.659461  0.131950  0.500000
Mo941  Mo  0.663248  0.138529  0.482988
Te1882  Te  0.659461  0.131950  0.465975
Te1883  Te  0.670824  0.138529  0.500000
Mo942  Mo  0.674612  0.131950  0.482988
Te1884  Te  0.670824  0.138529  0.465975
Te1885  Te  0.659461  0.145107  0.500000
Mo943  Mo  0.663248  0.151686  0.482988
Te1886  Te  0.659461  0.145107  0.465975
Te1887  Te  0.670824  0.151686  0.500000
Mo944  Mo  0.674612  0.145107  0.482988
Te1888  Te  0.670824  0.151686  0.465975
Te1889  Te  0.682188  0.105634  0.500000
Mo945  Mo  0.685976  0.112213  0.482988
Te1890  Te  0.682188  0.105634  0.465975
Te1891  Te  0.693551  0.112213  0.500000
Mo946  Mo  0.697339  0.105634  0.482988
Te1892  Te  0.693551  0.112213  0.465975
Te1893  Te  0.682188  0.118792  0.500000
Mo947  Mo  0.685976  0.125371  0.482988
Te1894  Te  0.682188  0.118792  0.465975
Te1895  Te  0.693551  0.125371  0.500000
Mo948  Mo  0.697339  0.118792  0.482988
Te1896  Te  0.693551  0.125371  0.465975
Te1897  Te  0.682188  0.131950  0.500000
Mo949  Mo  0.685976  0.138529  0.482988
Te1898  Te  0.682188  0.131950  0.465975
Te1899  Te  0.693551  0.138529  0.500000
Mo950  Mo  0.697339  0.131950  0.482988
Te1900  Te  0.693551  0.138529  0.465975
Te1901  Te  0.682188  0.145107  0.500000
Mo951  Mo  0.685976  0.151686  0.482988
Te1902  Te  0.682188  0.145107  0.465975
Te1903  Te  0.693551  0.151686  0.500000
Mo952  Mo  0.697339  0.145107  0.482988
Te1904  Te  0.693551  0.151686  0.465975
Te1905  Te  0.704915  0.105634  0.500000
Mo953  Mo  0.708703  0.112213  0.482988
Te1906  Te  0.704915  0.105634  0.465975
Te1907  Te  0.716279  0.112213  0.500000
Mo954  Mo  0.720067  0.105634  0.482988
Te1908  Te  0.716279  0.112213  0.465975
Te1909  Te  0.704915  0.118792  0.500000
Mo955  Mo  0.708703  0.125371  0.482988
Te1910  Te  0.704915  0.118792  0.465975
Te1911  Te  0.716279  0.125371  0.500000
Mo956  Mo  0.720067  0.118792  0.482988
Te1912  Te  0.716279  0.125371  0.465975
Te1913  Te  0.704915  0.131950  0.500000
Mo957  Mo  0.708703  0.138529  0.482988
Te1914  Te  0.704915  0.131950  0.465975
Te1915  Te  0.716279  0.138529  0.500000
Mo958  Mo  0.720067  0.131950  0.482988
Te1916  Te  0.716279  0.138529  0.465975
Te1917  Te  0.704915  0.145107  0.500000
Mo959  Mo  0.708703  0.151686  0.482988
Te1918  Te  0.704915  0.145107  0.465975
Te1919  Te  0.716279  0.151686  0.500000
Mo960  Mo  0.720067  0.145107  0.482988
Te1920  Te  0.716279  0.151686  0.465975
Te1921  Te  0.727642  0.105634  0.500000
Mo961  Mo  0.731430  0.112213  0.482988
Te1922  Te  0.727642  0.105634  0.465975
Te1923  Te  0.739006  0.112213  0.500000
Mo962  Mo  0.742794  0.105634  0.482988
Te1924  Te  0.739006  0.112213  0.465975
Te1925  Te  0.727642  0.118792  0.500000
Mo963  Mo  0.731430  0.125371  0.482988
Te1926  Te  0.727642  0.118792  0.465975
Te1927  Te  0.739006  0.125371  0.500000
Mo964  Mo  0.742794  0.118792  0.482988
Te1928  Te  0.739006  0.125371  0.465975
Te1929  Te  0.727642  0.131950  0.500000
Mo965  Mo  0.731430  0.138529  0.482988
Te1930  Te  0.727642  0.131950  0.465975
Te1931  Te  0.739006  0.138529  0.500000
Mo966  Mo  0.742794  0.131950  0.482988
Te1932  Te  0.739006  0.138529  0.465975
Te1933  Te  0.727642  0.145107  0.500000
Mo967  Mo  0.731430  0.151686  0.482988
Te1934  Te  0.727642  0.145107  0.465975
Te1935  Te  0.739006  0.151686  0.500000
Mo968  Mo  0.742794  0.145107  0.482988
Te1936  Te  0.739006  0.151686  0.465975
Te1937  Te  0.750370  0.105634  0.500000
Mo969  Mo  0.754158  0.112213  0.482988
Te1938  Te  0.750370  0.105634  0.465975
Te1939  Te  0.761733  0.112213  0.500000
Mo970  Mo  0.765521  0.105634  0.482988
Te1940  Te  0.761733  0.112213  0.465975
Te1941  Te  0.750370  0.118792  0.500000
Mo971  Mo  0.754158  0.125371  0.482988
Te1942  Te  0.750370  0.118792  0.465975
Te1943  Te  0.761733  0.125371  0.500000
Mo972  Mo  0.765521  0.118792  0.482988
Te1944  Te  0.761733  0.125371  0.465975
Te1945  Te  0.750370  0.131950  0.500000
Mo973  Mo  0.754158  0.138529  0.482988
Te1946  Te  0.750370  0.131950  0.465975
Te1947  Te  0.761733  0.138529  0.500000
Mo974  Mo  0.765521  0.131950  0.482988
Te1948  Te  0.761733  0.138529  0.465975
Te1949  Te  0.750370  0.145107  0.500000
Mo975  Mo  0.754158  0.151686  0.482988
Te1950  Te  0.750370  0.145107  0.465975
Te1951  Te  0.761733  0.151686  0.500000
Mo976  Mo  0.765521  0.145107  0.482988
Te1952  Te  0.761733  0.151686  0.465975
Te1953  Te  0.773097  0.105634  0.500000
Mo977  Mo  0.776885  0.112213  0.482988
Te1954  Te  0.773097  0.105634  0.465975
Te1955  Te  0.784461  0.112213  0.500000
Mo978  Mo  0.788248  0.105634  0.482988
Te1956  Te  0.784461  0.112213  0.465975
Te1957  Te  0.773097  0.118792  0.500000
Mo979  Mo  0.776885  0.125371  0.482988
Te1958  Te  0.773097  0.118792  0.465975
Te1959  Te  0.784461  0.125371  0.500000
Mo980  Mo  0.788248  0.118792  0.482988
Te1960  Te  0.784461  0.125371  0.465975
Te1961  Te  0.773097  0.131950  0.500000
Mo981  Mo  0.776885  0.138529  0.482988
Te1962  Te  0.773097  0.131950  0.465975
Te1963  Te  0.784461  0.138529  0.500000
Mo982  Mo  0.788248  0.131950  0.482988
Te1964  Te  0.784461  0.138529  0.465975
Te1965  Te  0.773097  0.145107  0.500000
Mo983  Mo  0.776885  0.151686  0.482988
Te1966  Te  0.773097  0.145107  0.465975
Te1967  Te  0.784461  0.151686  0.500000
Mo984  Mo  0.788248  0.145107  0.482988
Te1968  Te  0.784461  0.151686  0.465975
Te1969  Te  0.795824  0.105634  0.500000
Mo985  Mo  0.799612  0.112213  0.482988
Te1970  Te  0.795824  0.105634  0.465975
Te1971  Te  0.807188  0.112213  0.500000
Mo986  Mo  0.810976  0.105634  0.482988
Te1972  Te  0.807188  0.112213  0.465975
Te1973  Te  0.795824  0.118792  0.500000
Mo987  Mo  0.799612  0.125371  0.482988
Te1974  Te  0.795824  0.118792  0.465975
Te1975  Te  0.807188  0.125371  0.500000
Mo988  Mo  0.810976  0.118792  0.482988
Te1976  Te  0.807188  0.125371  0.465975
Te1977  Te  0.795824  0.131950  0.500000
Mo989  Mo  0.799612  0.138529  0.482988
Te1978  Te  0.795824  0.131950  0.465975
Te1979  Te  0.807188  0.138529  0.500000
Mo990  Mo  0.810976  0.131950  0.482988
Te1980  Te  0.807188  0.138529  0.465975
Te1981  Te  0.795824  0.145107  0.500000
Mo991  Mo  0.799612  0.151686  0.482988
Te1982  Te  0.795824  0.145107  0.465975
Te1983  Te  0.807188  0.151686  0.500000
Mo992  Mo  0.810976  0.145107  0.482988
Te1984  Te  0.807188  0.151686  0.465975
Te1985  Te  0.818551  0.105634  0.500000
Mo993  Mo  0.822339  0.112213  0.482988
Te1986  Te  0.818551  0.105634  0.465975
Te1987  Te  0.829915  0.112213  0.500000
Mo994  Mo  0.833703  0.105634  0.482988
Te1988  Te  0.829915  0.112213  0.465975
Te1989  Te  0.818551  0.118792  0.500000
Mo995  Mo  0.822339  0.125371  0.482988
Te1990  Te  0.818551  0.118792  0.465975
Te1991  Te  0.829915  0.125371  0.500000
Mo996  Mo  0.833703  0.118792  0.482988
Te1992  Te  0.829915  0.125371  0.465975
Te1993  Te  0.818551  0.131950  0.500000
Mo997  Mo  0.822339  0.138529  0.482988
Te1994  Te  0.818551  0.131950  0.465975
Te1995  Te  0.829915  0.138529  0.500000
Mo998  Mo  0.833703  0.131950  0.482988
Te1996  Te  0.829915  0.138529  0.465975
Te1997  Te  0.818551  0.145107  0.500000
Mo999  Mo  0.822339  0.151686  0.482988
Te1998  Te  0.818551  0.145107  0.465975
Te1999  Te  0.829915  0.151686  0.500000
Mo1000  Mo  0.833703  0.145107  0.482988
Te2000  Te  0.829915  0.151686  0.465975
Te2001  Te  0.841279  0.105634  0.500000
Mo1001  Mo  0.845067  0.112213  0.482988
Te2002  Te  0.841279  0.105634  0.465975
Te2003  Te  0.852642  0.112213  0.500000
Mo1002  Mo  0.856430  0.105634  0.482988
Te2004  Te  0.852642  0.112213  0.465975
Te2005  Te  0.841279  0.118792  0.500000
Mo1003  Mo  0.845067  0.125371  0.482988
Te2006  Te  0.841279  0.118792  0.465975
Te2007  Te  0.852642  0.125371  0.500000
Mo1004  Mo  0.856430  0.118792  0.482988
Te2008  Te  0.852642  0.125371  0.465975
Te2009  Te  0.841279  0.131950  0.500000
Mo1005  Mo  0.845067  0.138529  0.482988
Te2010  Te  0.841279  0.131950  0.465975
Te2011  Te  0.852642  0.138529  0.500000
Mo1006  Mo  0.856430  0.131950  0.482988
Te2012  Te  0.852642  0.138529  0.465975
Te2013  Te  0.841279  0.145107  0.500000
Mo1007  Mo  0.845067  0.151686  0.482988
Te2014  Te  0.841279  0.145107  0.465975
Te2015  Te  0.852642  0.151686  0.500000
Mo1008  Mo  0.856430  0.145107  0.482988
Te2016  Te  0.852642  0.151686  0.465975
Te2017  Te  0.864006  0.105634  0.500000
Mo1009  Mo  0.867794  0.112213  0.482988
Te2018  Te  0.864006  0.105634  0.465975
Te2019  Te  0.875370  0.112213  0.500000
Mo1010  Mo  0.879158  0.105634  0.482988
Te2020  Te  0.875370  0.112213  0.465975
Te2021  Te  0.864006  0.118792  0.500000
Mo1011  Mo  0.867794  0.125371  0.482988
Te2022  Te  0.864006  0.118792  0.465975
Te2023  Te  0.875370  0.125371  0.500000
Mo1012  Mo  0.879158  0.118792  0.482988
Te2024  Te  0.875370  0.125371  0.465975
Te2025  Te  0.864006  0.131950  0.500000
Mo1013  Mo  0.867794  0.138529  0.482988
Te2026  Te  0.864006  0.131950  0.465975
Te2027  Te  0.875370  0.138529  0.500000
Mo1014  Mo  0.879158  0.131950  0.482988
Te2028  Te  0.875370  0.138529  0.465975
Te2029  Te  0.864006  0.145107  0.500000
Mo1015  Mo  0.867794  0.151686  0.482988
Te2030  Te  0.864006  0.145107  0.465975
Te2031  Te  0.875370  0.151686  0.500000
Mo1016  Mo  0.879158  0.145107  0.482988
Te2032  Te  0.875370  0.151686  0.465975
Te2033  Te  0.886733  0.105634  0.500000
Mo1017  Mo  0.890521  0.112213  0.482988
Te2034  Te  0.886733  0.105634  0.465975
Te2035  Te  0.898097  0.112213  0.500000
Mo1018  Mo  0.901885  0.105634  0.482988
Te2036  Te  0.898097  0.112213  0.465975
Te2037  Te  0.886733  0.118792  0.500000
Mo1019  Mo  0.890521  0.125371  0.482988
Te2038  Te  0.886733  0.118792  0.465975
Te2039  Te  0.898097  0.125371  0.500000
Mo1020  Mo  0.901885  0.118792  0.482988
Te2040  Te  0.898097  0.125371  0.465975
Te2041  Te  0.886733  0.131950  0.500000
Mo1021  Mo  0.890521  0.138529  0.482988
Te2042  Te  0.886733  0.131950  0.465975
Te2043  Te  0.898097  0.138529  0.500000
Mo1022  Mo  0.901885  0.131950  0.482988
Te2044  Te  0.898097  0.138529  0.465975
Te2045  Te  0.886733  0.145107  0.500000
Mo1023  Mo  0.890521  0.151686  0.482988
Te2046  Te  0.886733  0.145107  0.465975
Te2047  Te  0.898097  0.151686  0.500000
Mo1024  Mo  0.901885  0.145107  0.482988
Te2048  Te  0.898097  0.151686  0.465975
Te2049  Te  0.909461  0.105634  0.500000
Mo1025  Mo  0.913248  0.112213  0.482988
Te2050  Te  0.909461  0.105634  0.465975
Te2051  Te  0.920824  0.112213  0.500000
Mo1026  Mo  0.924612  0.105634  0.482988
Te2052  Te  0.920824  0.112213  0.465975
Te2053  Te  0.909461  0.118792  0.500000
Mo1027  Mo  0.913248  0.125371  0.482988
Te2054  Te  0.909461  0.118792  0.465975
Te2055  Te  0.920824  0.125371  0.500000
Mo1028  Mo  0.924612  0.118792  0.482988
Te2056  Te  0.920824  0.125371  0.465975
Te2057  Te  0.909461  0.131950  0.500000
Mo1029  Mo  0.913248  0.138529  0.482988
Te2058  Te  0.909461  0.131950  0.465975
Te2059  Te  0.920824  0.138529  0.500000
Mo1030  Mo  0.924612  0.131950  0.482988
Te2060  Te  0.920824  0.138529  0.465975
Te2061  Te  0.909461  0.145107  0.500000
Mo1031  Mo  0.913248  0.151686  0.482988
Te2062  Te  0.909461  0.145107  0.465975
Te2063  Te  0.920824  0.151686  0.500000
Mo1032  Mo  0.924612  0.145107  0.482988
Te2064  Te  0.920824  0.151686  0.465975
Te2065  Te  0.932188  0.105634  0.500000
Mo1033  Mo  0.935976  0.112213  0.482988
Te2066  Te  0.932188  0.105634  0.465975
Te2067  Te  0.943552  0.112213  0.500000
Mo1034  Mo  0.947339  0.105634  0.482988
Te2068  Te  0.943552  0.112213  0.465975
Te2069  Te  0.932188  0.118792  0.500000
Mo1035  Mo  0.935976  0.125371  0.482988
Te2070  Te  0.932188  0.118792  0.465975
Te2071  Te  0.943552  0.125371  0.500000
Mo1036  Mo  0.947339  0.118792  0.482988
Te2072  Te  0.943552  0.125371  0.465975
Te2073  Te  0.932188  0.131950  0.500000
Mo1037  Mo  0.935976  0.138529  0.482988
Te2074  Te  0.932188  0.131950  0.465975
Te2075  Te  0.943552  0.138529  0.500000
Mo1038  Mo  0.947339  0.131950  0.482988
Te2076  Te  0.943552  0.138529  0.465975
Te2077  Te  0.932188  0.145107  0.500000
Mo1039  Mo  0.935976  0.151686  0.482988
Te2078  Te  0.932188  0.145107  0.465975
Te2079  Te  0.943552  0.151686  0.500000
Mo1040  Mo  0.947339  0.145107  0.482988
Te2080  Te  0.943552  0.151686  0.465975
Te2081  Te  0.954915  0.105634  0.500000
Mo1041  Mo  0.958703  0.112213  0.482988
Te2082  Te  0.954915  0.105634  0.465975
Te2083  Te  0.966279  0.112213  0.500000
Mo1042  Mo  0.970067  0.105634  0.482988
Te2084  Te  0.966279  0.112213  0.465975
Te2085  Te  0.954915  0.118792  0.500000
Mo1043  Mo  0.958703  0.125371  0.482988
Te2086  Te  0.954915  0.118792  0.465975
Te2087  Te  0.966279  0.125371  0.500000
Mo1044  Mo  0.970067  0.118792  0.482988
Te2088  Te  0.966279  0.125371  0.465975
Te2089  Te  0.954915  0.131950  0.500000
Mo1045  Mo  0.958703  0.138529  0.482988
Te2090  Te  0.954915  0.131950  0.465975
Te2091  Te  0.966279  0.138529  0.500000
Mo1046  Mo  0.970067  0.131950  0.482988
Te2092  Te  0.966279  0.138529  0.465975
Te2093  Te  0.954915  0.145107  0.500000
Mo1047  Mo  0.958703  0.151686  0.482988
Te2094  Te  0.954915  0.145107  0.465975
Te2095  Te  0.966279  0.151686  0.500000
Mo1048  Mo  0.970067  0.145107  0.482988
Te2096  Te  0.966279  0.151686  0.465975
Te2097  Te  0.977642  0.105634  0.500000
Mo1049  Mo  0.981430  0.112213  0.482988
Te2098  Te  0.977642  0.105634  0.465975
Te2099  Te  0.989006  0.112213  0.500000
Mo1050  Mo  0.992794  0.105634  0.482988
Te2100  Te  0.989006  0.112213  0.465975
Te2101  Te  0.977642  0.118792  0.500000
Mo1051  Mo  0.981430  0.125371  0.482988
Te2102  Te  0.977642  0.118792  0.465975
Te2103  Te  0.989006  0.125371  0.500000
Mo1052  Mo  0.992794  0.118792  0.482988
Te2104  Te  0.989006  0.125371  0.465975
Te2105  Te  0.977642  0.131950  0.500000
Mo1053  Mo  0.981430  0.138529  0.482988
Te2106  Te  0.977642  0.131950  0.465975
Te2107  Te  0.989006  0.138529  0.500000
Mo1054  Mo  0.992794  0.131950  0.482988
Te2108  Te  0.989006  0.138529  0.465975
Te2109  Te  0.977642  0.145107  0.500000
Mo1055  Mo  0.981430  0.151686  0.482988
Te2110  Te  0.977642  0.145107  0.465975
Te2111  Te  0.989006  0.151686  0.500000
Mo1056  Mo  0.992794  0.145107  0.482988
Te2112  Te  0.989006  0.151686  0.465975
Te2113  Te  0.000370  0.158265  0.500000
Mo1057  Mo  0.004158  0.164844  0.482988
Te2114  Te  0.000370  0.158265  0.465975
Te2115  Te  0.011733  0.164844  0.500000
Mo1058  Mo  0.015521  0.158265  0.482988
Te2116  Te  0.011733  0.164844  0.465975
Te2117  Te  0.000370  0.171423  0.500000
Mo1059  Mo  0.004158  0.178002  0.482988
Te2118  Te  0.000370  0.171423  0.465975
Te2119  Te  0.011733  0.178002  0.500000
Mo1060  Mo  0.015521  0.171423  0.482988
Te2120  Te  0.011733  0.178002  0.465975
Te2121  Te  0.000370  0.184581  0.500000
Mo1061  Mo  0.004158  0.191160  0.482988
Te2122  Te  0.000370  0.184581  0.465975
Te2123  Te  0.011733  0.191160  0.500000
Mo1062  Mo  0.015521  0.184581  0.482988
Te2124  Te  0.011733  0.191160  0.465975
Te2125  Te  0.000370  0.197739  0.500000
Mo1063  Mo  0.004158  0.204318  0.482988
Te2126  Te  0.000370  0.197739  0.465975
Te2127  Te  0.011733  0.204318  0.500000
Mo1064  Mo  0.015521  0.197739  0.482988
Te2128  Te  0.011733  0.204318  0.465975
Te2129  Te  0.023097  0.158265  0.500000
Mo1065  Mo  0.026885  0.164844  0.482988
Te2130  Te  0.023097  0.158265  0.465975
Te2131  Te  0.034461  0.164844  0.500000
Mo1066  Mo  0.038249  0.158265  0.482988
Te2132  Te  0.034461  0.164844  0.465975
Te2133  Te  0.023097  0.171423  0.500000
Mo1067  Mo  0.026885  0.178002  0.482988
Te2134  Te  0.023097  0.171423  0.465975
Te2135  Te  0.034461  0.178002  0.500000
Mo1068  Mo  0.038249  0.171423  0.482988
Te2136  Te  0.034461  0.178002  0.465975
Te2137  Te  0.023097  0.184581  0.500000
Mo1069  Mo  0.026885  0.191160  0.482988
Te2138  Te  0.023097  0.184581  0.465975
Te2139  Te  0.034461  0.191160  0.500000
Mo1070  Mo  0.038249  0.184581  0.482988
Te2140  Te  0.034461  0.191160  0.465975
Te2141  Te  0.023097  0.197739  0.500000
Mo1071  Mo  0.026885  0.204318  0.482988
Te2142  Te  0.023097  0.197739  0.465975
Te2143  Te  0.034461  0.204318  0.500000
Mo1072  Mo  0.038249  0.197739  0.482988
Te2144  Te  0.034461  0.204318  0.465975
Te2145  Te  0.045824  0.158265  0.500000
Mo1073  Mo  0.049612  0.164844  0.482988
Te2146  Te  0.045824  0.158265  0.465975
Te2147  Te  0.057188  0.164844  0.500000
Mo1074  Mo  0.060976  0.158265  0.482988
Te2148  Te  0.057188  0.164844  0.465975
Te2149  Te  0.045824  0.171423  0.500000
Mo1075  Mo  0.049612  0.178002  0.482988
Te2150  Te  0.045824  0.171423  0.465975
Te2151  Te  0.057188  0.178002  0.500000
Mo1076  Mo  0.060976  0.171423  0.482988
Te2152  Te  0.057188  0.178002  0.465975
Te2153  Te  0.045824  0.184581  0.500000
Mo1077  Mo  0.049612  0.191160  0.482988
Te2154  Te  0.045824  0.184581  0.465975
Te2155  Te  0.057188  0.191160  0.500000
Mo1078  Mo  0.060976  0.184581  0.482988
Te2156  Te  0.057188  0.191160  0.465975
Te2157  Te  0.045824  0.197739  0.500000
Mo1079  Mo  0.049612  0.204318  0.482988
Te2158  Te  0.045824  0.197739  0.465975
Te2159  Te  0.057188  0.204318  0.500000
Mo1080  Mo  0.060976  0.197739  0.482988
Te2160  Te  0.057188  0.204318  0.465975
Te2161  Te  0.068552  0.158265  0.500000
Mo1081  Mo  0.072339  0.164844  0.482988
Te2162  Te  0.068552  0.158265  0.465975
Te2163  Te  0.079915  0.164844  0.500000
Mo1082  Mo  0.083703  0.158265  0.482988
Te2164  Te  0.079915  0.164844  0.465975
Te2165  Te  0.068552  0.171423  0.500000
Mo1083  Mo  0.072339  0.178002  0.482988
Te2166  Te  0.068552  0.171423  0.465975
Te2167  Te  0.079915  0.178002  0.500000
Mo1084  Mo  0.083703  0.171423  0.482988
Te2168  Te  0.079915  0.178002  0.465975
Te2169  Te  0.068552  0.184581  0.500000
Mo1085  Mo  0.072339  0.191160  0.482988
Te2170  Te  0.068552  0.184581  0.465975
Te2171  Te  0.079915  0.191160  0.500000
Mo1086  Mo  0.083703  0.184581  0.482988
Te2172  Te  0.079915  0.191160  0.465975
Te2173  Te  0.068552  0.197739  0.500000
Mo1087  Mo  0.072339  0.204318  0.482988
Te2174  Te  0.068552  0.197739  0.465975
Te2175  Te  0.079915  0.204318  0.500000
Mo1088  Mo  0.083703  0.197739  0.482988
Te2176  Te  0.079915  0.204318  0.465975
Te2177  Te  0.091279  0.158265  0.500000
Mo1089  Mo  0.095067  0.164844  0.482988
Te2178  Te  0.091279  0.158265  0.465975
Te2179  Te  0.102642  0.164844  0.500000
Mo1090  Mo  0.106430  0.158265  0.482988
Te2180  Te  0.102642  0.164844  0.465975
Te2181  Te  0.091279  0.171423  0.500000
Mo1091  Mo  0.095067  0.178002  0.482988
Te2182  Te  0.091279  0.171423  0.465975
Te2183  Te  0.102642  0.178002  0.500000
Mo1092  Mo  0.106430  0.171423  0.482988
Te2184  Te  0.102642  0.178002  0.465975
Te2185  Te  0.091279  0.184581  0.500000
Mo1093  Mo  0.095067  0.191160  0.482988
Te2186  Te  0.091279  0.184581  0.465975
Te2187  Te  0.102642  0.191160  0.500000
Mo1094  Mo  0.106430  0.184581  0.482988
Te2188  Te  0.102642  0.191160  0.465975
Te2189  Te  0.091279  0.197739  0.500000
Mo1095  Mo  0.095067  0.204318  0.482988
Te2190  Te  0.091279  0.197739  0.465975
Te2191  Te  0.102642  0.204318  0.500000
Mo1096  Mo  0.106430  0.197739  0.482988
Te2192  Te  0.102642  0.204318  0.465975
Te2193  Te  0.114006  0.158265  0.500000
Mo1097  Mo  0.117794  0.164844  0.482988
Te2194  Te  0.114006  0.158265  0.465975
Te2195  Te  0.125370  0.164844  0.500000
Mo1098  Mo  0.129158  0.158265  0.482988
Te2196  Te  0.125370  0.164844  0.465975
Te2197  Te  0.114006  0.171423  0.500000
Mo1099  Mo  0.117794  0.178002  0.482988
Te2198  Te  0.114006  0.171423  0.465975
Te2199  Te  0.125370  0.178002  0.500000
Mo1100  Mo  0.129158  0.171423  0.482988
Te2200  Te  0.125370  0.178002  0.465975
Te2201  Te  0.114006  0.184581  0.500000
Mo1101  Mo  0.117794  0.191160  0.482988
Te2202  Te  0.114006  0.184581  0.465975
Te2203  Te  0.125370  0.191160  0.500000
Mo1102  Mo  0.129158  0.184581  0.482988
Te2204  Te  0.125370  0.191160  0.465975
Te2205  Te  0.114006  0.197739  0.500000
Mo1103  Mo  0.117794  0.204318  0.482988
Te2206  Te  0.114006  0.197739  0.465975
Te2207  Te  0.125370  0.204318  0.500000
Mo1104  Mo  0.129158  0.197739  0.482988
Te2208  Te  0.125370  0.204318  0.465975
Te2209  Te  0.136733  0.158265  0.500000
Mo1105  Mo  0.140521  0.164844  0.482988
Te2210  Te  0.136733  0.158265  0.465975
Te2211  Te  0.148097  0.164844  0.500000
Mo1106  Mo  0.151885  0.158265  0.482988
Te2212  Te  0.148097  0.164844  0.465975
Te2213  Te  0.136733  0.171423  0.500000
Mo1107  Mo  0.140521  0.178002  0.482988
Te2214  Te  0.136733  0.171423  0.465975
Te2215  Te  0.148097  0.178002  0.500000
Mo1108  Mo  0.151885  0.171423  0.482988
Te2216  Te  0.148097  0.178002  0.465975
Te2217  Te  0.136733  0.184581  0.500000
Mo1109  Mo  0.140521  0.191160  0.482988
Te2218  Te  0.136733  0.184581  0.465975
Te2219  Te  0.148097  0.191160  0.500000
Mo1110  Mo  0.151885  0.184581  0.482988
Te2220  Te  0.148097  0.191160  0.465975
Te2221  Te  0.136733  0.197739  0.500000
Mo1111  Mo  0.140521  0.204318  0.482988
Te2222  Te  0.136733  0.197739  0.465975
Te2223  Te  0.148097  0.204318  0.500000
Mo1112  Mo  0.151885  0.197739  0.482988
Te2224  Te  0.148097  0.204318  0.465975
Te2225  Te  0.159461  0.158265  0.500000
Mo1113  Mo  0.163248  0.164844  0.482988
Te2226  Te  0.159461  0.158265  0.465975
Te2227  Te  0.170824  0.164844  0.500000
Mo1114  Mo  0.174612  0.158265  0.482988
Te2228  Te  0.170824  0.164844  0.465975
Te2229  Te  0.159461  0.171423  0.500000
Mo1115  Mo  0.163248  0.178002  0.482988
Te2230  Te  0.159461  0.171423  0.465975
Te2231  Te  0.170824  0.178002  0.500000
Mo1116  Mo  0.174612  0.171423  0.482988
Te2232  Te  0.170824  0.178002  0.465975
Te2233  Te  0.159461  0.184581  0.500000
Mo1117  Mo  0.163248  0.191160  0.482988
Te2234  Te  0.159461  0.184581  0.465975
Te2235  Te  0.170824  0.191160  0.500000
Mo1118  Mo  0.174612  0.184581  0.482988
Te2236  Te  0.170824  0.191160  0.465975
Te2237  Te  0.159461  0.197739  0.500000
Mo1119  Mo  0.163248  0.204318  0.482988
Te2238  Te  0.159461  0.197739  0.465975
Te2239  Te  0.170824  0.204318  0.500000
Mo1120  Mo  0.174612  0.197739  0.482988
Te2240  Te  0.170824  0.204318  0.465975
Te2241  Te  0.182188  0.158265  0.500000
Mo1121  Mo  0.185976  0.164844  0.482988
Te2242  Te  0.182188  0.158265  0.465975
Te2243  Te  0.193551  0.164844  0.500000
Mo1122  Mo  0.197339  0.158265  0.482988
Te2244  Te  0.193551  0.164844  0.465975
Te2245  Te  0.182188  0.171423  0.500000
Mo1123  Mo  0.185976  0.178002  0.482988
Te2246  Te  0.182188  0.171423  0.465975
Te2247  Te  0.193551  0.178002  0.500000
Mo1124  Mo  0.197339  0.171423  0.482988
Te2248  Te  0.193551  0.178002  0.465975
Te2249  Te  0.182188  0.184581  0.500000
Mo1125  Mo  0.185976  0.191160  0.482988
Te2250  Te  0.182188  0.184581  0.465975
Te2251  Te  0.193551  0.191160  0.500000
Mo1126  Mo  0.197339  0.184581  0.482988
Te2252  Te  0.193551  0.191160  0.465975
Te2253  Te  0.182188  0.197739  0.500000
Mo1127  Mo  0.185976  0.204318  0.482988
Te2254  Te  0.182188  0.197739  0.465975
Te2255  Te  0.193551  0.204318  0.500000
Mo1128  Mo  0.197339  0.197739  0.482988
Te2256  Te  0.193551  0.204318  0.465975
Te2257  Te  0.204915  0.158265  0.500000
Mo1129  Mo  0.208703  0.164844  0.482988
Te2258  Te  0.204915  0.158265  0.465975
Te2259  Te  0.216279  0.164844  0.500000
Mo1130  Mo  0.220067  0.158265  0.482988
Te2260  Te  0.216279  0.164844  0.465975
Te2261  Te  0.204915  0.171423  0.500000
Mo1131  Mo  0.208703  0.178002  0.482988
Te2262  Te  0.204915  0.171423  0.465975
Te2263  Te  0.216279  0.178002  0.500000
Mo1132  Mo  0.220067  0.171423  0.482988
Te2264  Te  0.216279  0.178002  0.465975
Te2265  Te  0.204915  0.184581  0.500000
Mo1133  Mo  0.208703  0.191160  0.482988
Te2266  Te  0.204915  0.184581  0.465975
Te2267  Te  0.216279  0.191160  0.500000
Mo1134  Mo  0.220067  0.184581  0.482988
Te2268  Te  0.216279  0.191160  0.465975
Te2269  Te  0.204915  0.197739  0.500000
Mo1135  Mo  0.208703  0.204318  0.482988
Te2270  Te  0.204915  0.197739  0.465975
Te2271  Te  0.216279  0.204318  0.500000
Mo1136  Mo  0.220067  0.197739  0.482988
Te2272  Te  0.216279  0.204318  0.465975
Te2273  Te  0.227642  0.158265  0.500000
Mo1137  Mo  0.231430  0.164844  0.482988
Te2274  Te  0.227642  0.158265  0.465975
Te2275  Te  0.239006  0.164844  0.500000
Mo1138  Mo  0.242794  0.158265  0.482988
Te2276  Te  0.239006  0.164844  0.465975
Te2277  Te  0.227642  0.171423  0.500000
Mo1139  Mo  0.231430  0.178002  0.482988
Te2278  Te  0.227642  0.171423  0.465975
Te2279  Te  0.239006  0.178002  0.500000
Mo1140  Mo  0.242794  0.171423  0.482988
Te2280  Te  0.239006  0.178002  0.465975
Te2281  Te  0.227642  0.184581  0.500000
Mo1141  Mo  0.231430  0.191160  0.482988
Te2282  Te  0.227642  0.184581  0.465975
Te2283  Te  0.239006  0.191160  0.500000
Mo1142  Mo  0.242794  0.184581  0.482988
Te2284  Te  0.239006  0.191160  0.465975
Te2285  Te  0.227642  0.197739  0.500000
Mo1143  Mo  0.231430  0.204318  0.482988
Te2286  Te  0.227642  0.197739  0.465975
Te2287  Te  0.239006  0.204318  0.500000
Mo1144  Mo  0.242794  0.197739  0.482988
Te2288  Te  0.239006  0.204318  0.465975
Te2289  Te  0.250370  0.158265  0.500000
Mo1145  Mo  0.254158  0.164844  0.482988
Te2290  Te  0.250370  0.158265  0.465975
Te2291  Te  0.261733  0.164844  0.500000
Mo1146  Mo  0.265521  0.158265  0.482988
Te2292  Te  0.261733  0.164844  0.465975
Te2293  Te  0.250370  0.171423  0.500000
Mo1147  Mo  0.254158  0.178002  0.482988
Te2294  Te  0.250370  0.171423  0.465975
Te2295  Te  0.261733  0.178002  0.500000
Mo1148  Mo  0.265521  0.171423  0.482988
Te2296  Te  0.261733  0.178002  0.465975
Te2297  Te  0.250370  0.184581  0.500000
Mo1149  Mo  0.254158  0.191160  0.482988
Te2298  Te  0.250370  0.184581  0.465975
Te2299  Te  0.261733  0.191160  0.500000
Mo1150  Mo  0.265521  0.184581  0.482988
Te2300  Te  0.261733  0.191160  0.465975
Te2301  Te  0.250370  0.197739  0.500000
Mo1151  Mo  0.254158  0.204318  0.482988
Te2302  Te  0.250370  0.197739  0.465975
Te2303  Te  0.261733  0.204318  0.500000
Mo1152  Mo  0.265521  0.197739  0.482988
Te2304  Te  0.261733  0.204318  0.465975
Te2305  Te  0.273097  0.158265  0.500000
Mo1153  Mo  0.276885  0.164844  0.482988
Te2306  Te  0.273097  0.158265  0.465975
Te2307  Te  0.284461  0.164844  0.500000
Mo1154  Mo  0.288248  0.158265  0.482988
Te2308  Te  0.284461  0.164844  0.465975
Te2309  Te  0.273097  0.171423  0.500000
Mo1155  Mo  0.276885  0.178002  0.482988
Te2310  Te  0.273097  0.171423  0.465975
Te2311  Te  0.284461  0.178002  0.500000
Mo1156  Mo  0.288248  0.171423  0.482988
Te2312  Te  0.284461  0.178002  0.465975
Te2313  Te  0.273097  0.184581  0.500000
Mo1157  Mo  0.276885  0.191160  0.482988
Te2314  Te  0.273097  0.184581  0.465975
Te2315  Te  0.284461  0.191160  0.500000
Mo1158  Mo  0.288248  0.184581  0.482988
Te2316  Te  0.284461  0.191160  0.465975
Te2317  Te  0.273097  0.197739  0.500000
Mo1159  Mo  0.276885  0.204318  0.482988
Te2318  Te  0.273097  0.197739  0.465975
Te2319  Te  0.284461  0.204318  0.500000
Mo1160  Mo  0.288248  0.197739  0.482988
Te2320  Te  0.284461  0.204318  0.465975
Te2321  Te  0.295824  0.158265  0.500000
Mo1161  Mo  0.299612  0.164844  0.482988
Te2322  Te  0.295824  0.158265  0.465975
Te2323  Te  0.307188  0.164844  0.500000
Mo1162  Mo  0.310976  0.158265  0.482988
Te2324  Te  0.307188  0.164844  0.465975
Te2325  Te  0.295824  0.171423  0.500000
Mo1163  Mo  0.299612  0.178002  0.482988
Te2326  Te  0.295824  0.171423  0.465975
Te2327  Te  0.307188  0.178002  0.500000
Mo1164  Mo  0.310976  0.171423  0.482988
Te2328  Te  0.307188  0.178002  0.465975
Te2329  Te  0.295824  0.184581  0.500000
Mo1165  Mo  0.299612  0.191160  0.482988
Te2330  Te  0.295824  0.184581  0.465975
Te2331  Te  0.307188  0.191160  0.500000
Mo1166  Mo  0.310976  0.184581  0.482988
Te2332  Te  0.307188  0.191160  0.465975
Te2333  Te  0.295824  0.197739  0.500000
Mo1167  Mo  0.299612  0.204318  0.482988
Te2334  Te  0.295824  0.197739  0.465975
Te2335  Te  0.307188  0.204318  0.500000
Mo1168  Mo  0.310976  0.197739  0.482988
Te2336  Te  0.307188  0.204318  0.465975
Te2337  Te  0.318551  0.158265  0.500000
Mo1169  Mo  0.322339  0.164844  0.482988
Te2338  Te  0.318551  0.158265  0.465975
Te2339  Te  0.329915  0.164844  0.500000
Mo1170  Mo  0.333703  0.158265  0.482988
Te2340  Te  0.329915  0.164844  0.465975
Te2341  Te  0.318551  0.171423  0.500000
Mo1171  Mo  0.322339  0.178002  0.482988
Te2342  Te  0.318551  0.171423  0.465975
Te2343  Te  0.329915  0.178002  0.500000
Mo1172  Mo  0.333703  0.171423  0.482988
Te2344  Te  0.329915  0.178002  0.465975
Te2345  Te  0.318551  0.184581  0.500000
Mo1173  Mo  0.322339  0.191160  0.482988
Te2346  Te  0.318551  0.184581  0.465975
Te2347  Te  0.329915  0.191160  0.500000
Mo1174  Mo  0.333703  0.184581  0.482988
Te2348  Te  0.329915  0.191160  0.465975
Te2349  Te  0.318551  0.197739  0.500000
Mo1175  Mo  0.322339  0.204318  0.482988
Te2350  Te  0.318551  0.197739  0.465975
Te2351  Te  0.329915  0.204318  0.500000
Mo1176  Mo  0.333703  0.197739  0.482988
Te2352  Te  0.329915  0.204318  0.465975
Te2353  Te  0.341279  0.158265  0.500000
Mo1177  Mo  0.345067  0.164844  0.482988
Te2354  Te  0.341279  0.158265  0.465975
Te2355  Te  0.352642  0.164844  0.500000
Mo1178  Mo  0.356430  0.158265  0.482988
Te2356  Te  0.352642  0.164844  0.465975
Te2357  Te  0.341279  0.171423  0.500000
Mo1179  Mo  0.345067  0.178002  0.482988
Te2358  Te  0.341279  0.171423  0.465975
Te2359  Te  0.352642  0.178002  0.500000
Mo1180  Mo  0.356430  0.171423  0.482988
Te2360  Te  0.352642  0.178002  0.465975
Te2361  Te  0.341279  0.184581  0.500000
Mo1181  Mo  0.345067  0.191160  0.482988
Te2362  Te  0.341279  0.184581  0.465975
Te2363  Te  0.352642  0.191160  0.500000
Mo1182  Mo  0.356430  0.184581  0.482988
Te2364  Te  0.352642  0.191160  0.465975
Te2365  Te  0.341279  0.197739  0.500000
Mo1183  Mo  0.345067  0.204318  0.482988
Te2366  Te  0.341279  0.197739  0.465975
Te2367  Te  0.352642  0.204318  0.500000
Mo1184  Mo  0.356430  0.197739  0.482988
Te2368  Te  0.352642  0.204318  0.465975
Te2369  Te  0.364006  0.158265  0.500000
Mo1185  Mo  0.367794  0.164844  0.482988
Te2370  Te  0.364006  0.158265  0.465975
Te2371  Te  0.375370  0.164844  0.500000
Mo1186  Mo  0.379158  0.158265  0.482988
Te2372  Te  0.375370  0.164844  0.465975
Te2373  Te  0.364006  0.171423  0.500000
Mo1187  Mo  0.367794  0.178002  0.482988
Te2374  Te  0.364006  0.171423  0.465975
Te2375  Te  0.375370  0.178002  0.500000
Mo1188  Mo  0.379158  0.171423  0.482988
Te2376  Te  0.375370  0.178002  0.465975
Te2377  Te  0.364006  0.184581  0.500000
Mo1189  Mo  0.367794  0.191160  0.482988
Te2378  Te  0.364006  0.184581  0.465975
Te2379  Te  0.375370  0.191160  0.500000
Mo1190  Mo  0.379158  0.184581  0.482988
Te2380  Te  0.375370  0.191160  0.465975
Te2381  Te  0.364006  0.197739  0.500000
Mo1191  Mo  0.367794  0.204318  0.482988
Te2382  Te  0.364006  0.197739  0.465975
Te2383  Te  0.375370  0.204318  0.500000
Mo1192  Mo  0.379158  0.197739  0.482988
Te2384  Te  0.375370  0.204318  0.465975
Te2385  Te  0.386733  0.158265  0.500000
Mo1193  Mo  0.390521  0.164844  0.482988
Te2386  Te  0.386733  0.158265  0.465975
Te2387  Te  0.398097  0.164844  0.500000
Mo1194  Mo  0.401885  0.158265  0.482988
Te2388  Te  0.398097  0.164844  0.465975
Te2389  Te  0.386733  0.171423  0.500000
Mo1195  Mo  0.390521  0.178002  0.482988
Te2390  Te  0.386733  0.171423  0.465975
Te2391  Te  0.398097  0.178002  0.500000
Mo1196  Mo  0.401885  0.171423  0.482988
Te2392  Te  0.398097  0.178002  0.465975
Te2393  Te  0.386733  0.184581  0.500000
Mo1197  Mo  0.390521  0.191160  0.482988
Te2394  Te  0.386733  0.184581  0.465975
Te2395  Te  0.398097  0.191160  0.500000
Mo1198  Mo  0.401885  0.184581  0.482988
Te2396  Te  0.398097  0.191160  0.465975
Te2397  Te  0.386733  0.197739  0.500000
Mo1199  Mo  0.390521  0.204318  0.482988
Te2398  Te  0.386733  0.197739  0.465975
Te2399  Te  0.398097  0.204318  0.500000
Mo1200  Mo  0.401885  0.197739  0.482988
Te2400  Te  0.398097  0.204318  0.465975
Te2401  Te  0.409461  0.158265  0.500000
Mo1201  Mo  0.413248  0.164844  0.482988
Te2402  Te  0.409461  0.158265  0.465975
Te2403  Te  0.420824  0.164844  0.500000
Mo1202  Mo  0.424612  0.158265  0.482988
Te2404  Te  0.420824  0.164844  0.465975
Te2405  Te  0.409461  0.171423  0.500000
Mo1203  Mo  0.413248  0.178002  0.482988
Te2406  Te  0.409461  0.171423  0.465975
Te2407  Te  0.420824  0.178002  0.500000
Mo1204  Mo  0.424612  0.171423  0.482988
Te2408  Te  0.420824  0.178002  0.465975
Te2409  Te  0.409461  0.184581  0.500000
Mo1205  Mo  0.413248  0.191160  0.482988
Te2410  Te  0.409461  0.184581  0.465975
Te2411  Te  0.420824  0.191160  0.500000
Mo1206  Mo  0.424612  0.184581  0.482988
Te2412  Te  0.420824  0.191160  0.465975
Te2413  Te  0.409461  0.197739  0.500000
Mo1207  Mo  0.413248  0.204318  0.482988
Te2414  Te  0.409461  0.197739  0.465975
Te2415  Te  0.420824  0.204318  0.500000
Mo1208  Mo  0.424612  0.197739  0.482988
Te2416  Te  0.420824  0.204318  0.465975
Te2417  Te  0.432188  0.158265  0.500000
Mo1209  Mo  0.435976  0.164844  0.482988
Te2418  Te  0.432188  0.158265  0.465975
Te2419  Te  0.443552  0.164844  0.500000
Mo1210  Mo  0.447339  0.158265  0.482988
Te2420  Te  0.443552  0.164844  0.465975
Te2421  Te  0.432188  0.171423  0.500000
Mo1211  Mo  0.435976  0.178002  0.482988
Te2422  Te  0.432188  0.171423  0.465975
Te2423  Te  0.443552  0.178002  0.500000
Mo1212  Mo  0.447339  0.171423  0.482988
Te2424  Te  0.443552  0.178002  0.465975
Te2425  Te  0.432188  0.184581  0.500000
Mo1213  Mo  0.435976  0.191160  0.482988
Te2426  Te  0.432188  0.184581  0.465975
Te2427  Te  0.443552  0.191160  0.500000
Mo1214  Mo  0.447339  0.184581  0.482988
Te2428  Te  0.443552  0.191160  0.465975
Te2429  Te  0.432188  0.197739  0.500000
Mo1215  Mo  0.435976  0.204318  0.482988
Te2430  Te  0.432188  0.197739  0.465975
Te2431  Te  0.443552  0.204318  0.500000
Mo1216  Mo  0.447339  0.197739  0.482988
Te2432  Te  0.443552  0.204318  0.465975
Te2433  Te  0.454915  0.158265  0.500000
Mo1217  Mo  0.458703  0.164844  0.482988
Te2434  Te  0.454915  0.158265  0.465975
Te2435  Te  0.466279  0.164844  0.500000
Mo1218  Mo  0.470067  0.158265  0.482988
Te2436  Te  0.466279  0.164844  0.465975
Te2437  Te  0.454915  0.171423  0.500000
Mo1219  Mo  0.458703  0.178002  0.482988
Te2438  Te  0.454915  0.171423  0.465975
Te2439  Te  0.466279  0.178002  0.500000
Mo1220  Mo  0.470067  0.171423  0.482988
Te2440  Te  0.466279  0.178002  0.465975
Te2441  Te  0.454915  0.184581  0.500000
Mo1221  Mo  0.458703  0.191160  0.482988
Te2442  Te  0.454915  0.184581  0.465975
Te2443  Te  0.466279  0.191160  0.500000
Mo1222  Mo  0.470067  0.184581  0.482988
Te2444  Te  0.466279  0.191160  0.465975
Te2445  Te  0.454915  0.197739  0.500000
Mo1223  Mo  0.458703  0.204318  0.482988
Te2446  Te  0.454915  0.197739  0.465975
Te2447  Te  0.466279  0.204318  0.500000
Mo1224  Mo  0.470067  0.197739  0.482988
Te2448  Te  0.466279  0.204318  0.465975
Te2449  Te  0.477642  0.158265  0.500000
Mo1225  Mo  0.481430  0.164844  0.482988
Te2450  Te  0.477642  0.158265  0.465975
Te2451  Te  0.489006  0.164844  0.500000
Mo1226  Mo  0.492794  0.158265  0.482988
Te2452  Te  0.489006  0.164844  0.465975
Te2453  Te  0.477642  0.171423  0.500000
Mo1227  Mo  0.481430  0.178002  0.482988
Te2454  Te  0.477642  0.171423  0.465975
Te2455  Te  0.489006  0.178002  0.500000
Mo1228  Mo  0.492794  0.171423  0.482988
Te2456  Te  0.489006  0.178002  0.465975
Te2457  Te  0.477642  0.184581  0.500000
Mo1229  Mo  0.481430  0.191160  0.482988
Te2458  Te  0.477642  0.184581  0.465975
Te2459  Te  0.489006  0.191160  0.500000
Mo1230  Mo  0.492794  0.184581  0.482988
Te2460  Te  0.489006  0.191160  0.465975
Te2461  Te  0.477642  0.197739  0.500000
Mo1231  Mo  0.481430  0.204318  0.482988
Te2462  Te  0.477642  0.197739  0.465975
Te2463  Te  0.489006  0.204318  0.500000
Mo1232  Mo  0.492794  0.197739  0.482988
Te2464  Te  0.489006  0.204318  0.465975
Te2465  Te  0.500370  0.158265  0.500000
Mo1233  Mo  0.504158  0.164844  0.482988
Te2466  Te  0.500370  0.158265  0.465975
Te2467  Te  0.511733  0.164844  0.500000
Mo1234  Mo  0.515521  0.158265  0.482988
Te2468  Te  0.511733  0.164844  0.465975
Te2469  Te  0.500370  0.171423  0.500000
Mo1235  Mo  0.504158  0.178002  0.482988
Te2470  Te  0.500370  0.171423  0.465975
Te2471  Te  0.511733  0.178002  0.500000
Mo1236  Mo  0.515521  0.171423  0.482988
Te2472  Te  0.511733  0.178002  0.465975
Te2473  Te  0.500370  0.184581  0.500000
Mo1237  Mo  0.504158  0.191160  0.482988
Te2474  Te  0.500370  0.184581  0.465975
Te2475  Te  0.511733  0.191160  0.500000
Mo1238  Mo  0.515521  0.184581  0.482988
Te2476  Te  0.511733  0.191160  0.465975
Te2477  Te  0.500370  0.197739  0.500000
Mo1239  Mo  0.504158  0.204318  0.482988
Te2478  Te  0.500370  0.197739  0.465975
Te2479  Te  0.511733  0.204318  0.500000
Mo1240  Mo  0.515521  0.197739  0.482988
Te2480  Te  0.511733  0.204318  0.465975
Te2481  Te  0.523097  0.158265  0.500000
Mo1241  Mo  0.526885  0.164844  0.482988
Te2482  Te  0.523097  0.158265  0.465975
Te2483  Te  0.534461  0.164844  0.500000
Mo1242  Mo  0.538249  0.158265  0.482988
Te2484  Te  0.534461  0.164844  0.465975
Te2485  Te  0.523097  0.171423  0.500000
Mo1243  Mo  0.526885  0.178002  0.482988
Te2486  Te  0.523097  0.171423  0.465975
Te2487  Te  0.534461  0.178002  0.500000
Mo1244  Mo  0.538249  0.171423  0.482988
Te2488  Te  0.534461  0.178002  0.465975
Te2489  Te  0.523097  0.184581  0.500000
Mo1245  Mo  0.526885  0.191160  0.482988
Te2490  Te  0.523097  0.184581  0.465975
Te2491  Te  0.534461  0.191160  0.500000
Mo1246  Mo  0.538249  0.184581  0.482988
Te2492  Te  0.534461  0.191160  0.465975
Te2493  Te  0.523097  0.197739  0.500000
Mo1247  Mo  0.526885  0.204318  0.482988
Te2494  Te  0.523097  0.197739  0.465975
Te2495  Te  0.534461  0.204318  0.500000
Mo1248  Mo  0.538249  0.197739  0.482988
Te2496  Te  0.534461  0.204318  0.465975
Te2497  Te  0.545824  0.158265  0.500000
Mo1249  Mo  0.549612  0.164844  0.482988
Te2498  Te  0.545824  0.158265  0.465975
Te2499  Te  0.557188  0.164844  0.500000
Mo1250  Mo  0.560976  0.158265  0.482988
Te2500  Te  0.557188  0.164844  0.465975
Te2501  Te  0.545824  0.171423  0.500000
Mo1251  Mo  0.549612  0.178002  0.482988
Te2502  Te  0.545824  0.171423  0.465975
Te2503  Te  0.557188  0.178002  0.500000
Mo1252  Mo  0.560976  0.171423  0.482988
Te2504  Te  0.557188  0.178002  0.465975
Te2505  Te  0.545824  0.184581  0.500000
Mo1253  Mo  0.549612  0.191160  0.482988
Te2506  Te  0.545824  0.184581  0.465975
Te2507  Te  0.557188  0.191160  0.500000
Mo1254  Mo  0.560976  0.184581  0.482988
Te2508  Te  0.557188  0.191160  0.465975
Te2509  Te  0.545824  0.197739  0.500000
Mo1255  Mo  0.549612  0.204318  0.482988
Te2510  Te  0.545824  0.197739  0.465975
Te2511  Te  0.557188  0.204318  0.500000
Mo1256  Mo  0.560976  0.197739  0.482988
Te2512  Te  0.557188  0.204318  0.465975
Te2513  Te  0.568552  0.158265  0.500000
Mo1257  Mo  0.572339  0.164844  0.482988
Te2514  Te  0.568552  0.158265  0.465975
Te2515  Te  0.579915  0.164844  0.500000
Mo1258  Mo  0.583703  0.158265  0.482988
Te2516  Te  0.579915  0.164844  0.465975
Te2517  Te  0.568552  0.171423  0.500000
Mo1259  Mo  0.572339  0.178002  0.482988
Te2518  Te  0.568552  0.171423  0.465975
Te2519  Te  0.579915  0.178002  0.500000
Mo1260  Mo  0.583703  0.171423  0.482988
Te2520  Te  0.579915  0.178002  0.465975
Te2521  Te  0.568552  0.184581  0.500000
Mo1261  Mo  0.572339  0.191160  0.482988
Te2522  Te  0.568552  0.184581  0.465975
Te2523  Te  0.579915  0.191160  0.500000
Mo1262  Mo  0.583703  0.184581  0.482988
Te2524  Te  0.579915  0.191160  0.465975
Te2525  Te  0.568552  0.197739  0.500000
Mo1263  Mo  0.572339  0.204318  0.482988
Te2526  Te  0.568552  0.197739  0.465975
Te2527  Te  0.579915  0.204318  0.500000
Mo1264  Mo  0.583703  0.197739  0.482988
Te2528  Te  0.579915  0.204318  0.465975
Te2529  Te  0.591279  0.158265  0.500000
Mo1265  Mo  0.595067  0.164844  0.482988
Te2530  Te  0.591279  0.158265  0.465975
Te2531  Te  0.602642  0.164844  0.500000
Mo1266  Mo  0.606430  0.158265  0.482988
Te2532  Te  0.602642  0.164844  0.465975
Te2533  Te  0.591279  0.171423  0.500000
Mo1267  Mo  0.595067  0.178002  0.482988
Te2534  Te  0.591279  0.171423  0.465975
Te2535  Te  0.602642  0.178002  0.500000
Mo1268  Mo  0.606430  0.171423  0.482988
Te2536  Te  0.602642  0.178002  0.465975
Te2537  Te  0.591279  0.184581  0.500000
Mo1269  Mo  0.595067  0.191160  0.482988
Te2538  Te  0.591279  0.184581  0.465975
Te2539  Te  0.602642  0.191160  0.500000
Mo1270  Mo  0.606430  0.184581  0.482988
Te2540  Te  0.602642  0.191160  0.465975
Te2541  Te  0.591279  0.197739  0.500000
Mo1271  Mo  0.595067  0.204318  0.482988
Te2542  Te  0.591279  0.197739  0.465975
Te2543  Te  0.602642  0.204318  0.500000
Mo1272  Mo  0.606430  0.197739  0.482988
Te2544  Te  0.602642  0.204318  0.465975
Te2545  Te  0.614006  0.158265  0.500000
Mo1273  Mo  0.617794  0.164844  0.482988
Te2546  Te  0.614006  0.158265  0.465975
Te2547  Te  0.625370  0.164844  0.500000
Mo1274  Mo  0.629158  0.158265  0.482988
Te2548  Te  0.625370  0.164844  0.465975
Te2549  Te  0.614006  0.171423  0.500000
Mo1275  Mo  0.617794  0.178002  0.482988
Te2550  Te  0.614006  0.171423  0.465975
Te2551  Te  0.625370  0.178002  0.500000
Mo1276  Mo  0.629158  0.171423  0.482988
Te2552  Te  0.625370  0.178002  0.465975
Te2553  Te  0.614006  0.184581  0.500000
Mo1277  Mo  0.617794  0.191160  0.482988
Te2554  Te  0.614006  0.184581  0.465975
Te2555  Te  0.625370  0.191160  0.500000
Mo1278  Mo  0.629158  0.184581  0.482988
Te2556  Te  0.625370  0.191160  0.465975
Te2557  Te  0.614006  0.197739  0.500000
Mo1279  Mo  0.617794  0.204318  0.482988
Te2558  Te  0.614006  0.197739  0.465975
Te2559  Te  0.625370  0.204318  0.500000
Mo1280  Mo  0.629158  0.197739  0.482988
Te2560  Te  0.625370  0.204318  0.465975
Te2561  Te  0.636733  0.158265  0.500000
Mo1281  Mo  0.640521  0.164844  0.482988
Te2562  Te  0.636733  0.158265  0.465975
Te2563  Te  0.648097  0.164844  0.500000
Mo1282  Mo  0.651885  0.158265  0.482988
Te2564  Te  0.648097  0.164844  0.465975
Te2565  Te  0.636733  0.171423  0.500000
Mo1283  Mo  0.640521  0.178002  0.482988
Te2566  Te  0.636733  0.171423  0.465975
Te2567  Te  0.648097  0.178002  0.500000
Mo1284  Mo  0.651885  0.171423  0.482988
Te2568  Te  0.648097  0.178002  0.465975
Te2569  Te  0.636733  0.184581  0.500000
Mo1285  Mo  0.640521  0.191160  0.482988
Te2570  Te  0.636733  0.184581  0.465975
Te2571  Te  0.648097  0.191160  0.500000
Mo1286  Mo  0.651885  0.184581  0.482988
Te2572  Te  0.648097  0.191160  0.465975
Te2573  Te  0.636733  0.197739  0.500000
Mo1287  Mo  0.640521  0.204318  0.482988
Te2574  Te  0.636733  0.197739  0.465975
Te2575  Te  0.648097  0.204318  0.500000
Mo1288  Mo  0.651885  0.197739  0.482988
Te2576  Te  0.648097  0.204318  0.465975
Te2577  Te  0.659461  0.158265  0.500000
Mo1289  Mo  0.663248  0.164844  0.482988
Te2578  Te  0.659461  0.158265  0.465975
Te2579  Te  0.670824  0.164844  0.500000
Mo1290  Mo  0.674612  0.158265  0.482988
Te2580  Te  0.670824  0.164844  0.465975
Te2581  Te  0.659461  0.171423  0.500000
Mo1291  Mo  0.663248  0.178002  0.482988
Te2582  Te  0.659461  0.171423  0.465975
Te2583  Te  0.670824  0.178002  0.500000
Mo1292  Mo  0.674612  0.171423  0.482988
Te2584  Te  0.670824  0.178002  0.465975
Te2585  Te  0.659461  0.184581  0.500000
Mo1293  Mo  0.663248  0.191160  0.482988
Te2586  Te  0.659461  0.184581  0.465975
Te2587  Te  0.670824  0.191160  0.500000
Mo1294  Mo  0.674612  0.184581  0.482988
Te2588  Te  0.670824  0.191160  0.465975
Te2589  Te  0.659461  0.197739  0.500000
Mo1295  Mo  0.663248  0.204318  0.482988
Te2590  Te  0.659461  0.197739  0.465975
Te2591  Te  0.670824  0.204318  0.500000
Mo1296  Mo  0.674612  0.197739  0.482988
Te2592  Te  0.670824  0.204318  0.465975
Te2593  Te  0.682188  0.158265  0.500000
Mo1297  Mo  0.685976  0.164844  0.482988
Te2594  Te  0.682188  0.158265  0.465975
Te2595  Te  0.693551  0.164844  0.500000
Mo1298  Mo  0.697339  0.158265  0.482988
Te2596  Te  0.693551  0.164844  0.465975
Te2597  Te  0.682188  0.171423  0.500000
Mo1299  Mo  0.685976  0.178002  0.482988
Te2598  Te  0.682188  0.171423  0.465975
Te2599  Te  0.693551  0.178002  0.500000
Mo1300  Mo  0.697339  0.171423  0.482988
Te2600  Te  0.693551  0.178002  0.465975
Te2601  Te  0.682188  0.184581  0.500000
Mo1301  Mo  0.685976  0.191160  0.482988
Te2602  Te  0.682188  0.184581  0.465975
Te2603  Te  0.693551  0.191160  0.500000
Mo1302  Mo  0.697339  0.184581  0.482988
Te2604  Te  0.693551  0.191160  0.465975
Te2605  Te  0.682188  0.197739  0.500000
Mo1303  Mo  0.685976  0.204318  0.482988
Te2606  Te  0.682188  0.197739  0.465975
Te2607  Te  0.693551  0.204318  0.500000
Mo1304  Mo  0.697339  0.197739  0.482988
Te2608  Te  0.693551  0.204318  0.465975
Te2609  Te  0.704915  0.158265  0.500000
Mo1305  Mo  0.708703  0.164844  0.482988
Te2610  Te  0.704915  0.158265  0.465975
Te2611  Te  0.716279  0.164844  0.500000
Mo1306  Mo  0.720067  0.158265  0.482988
Te2612  Te  0.716279  0.164844  0.465975
Te2613  Te  0.704915  0.171423  0.500000
Mo1307  Mo  0.708703  0.178002  0.482988
Te2614  Te  0.704915  0.171423  0.465975
Te2615  Te  0.716279  0.178002  0.500000
Mo1308  Mo  0.720067  0.171423  0.482988
Te2616  Te  0.716279  0.178002  0.465975
Te2617  Te  0.704915  0.184581  0.500000
Mo1309  Mo  0.708703  0.191160  0.482988
Te2618  Te  0.704915  0.184581  0.465975
Te2619  Te  0.716279  0.191160  0.500000
Mo1310  Mo  0.720067  0.184581  0.482988
Te2620  Te  0.716279  0.191160  0.465975
Te2621  Te  0.704915  0.197739  0.500000
Mo1311  Mo  0.708703  0.204318  0.482988
Te2622  Te  0.704915  0.197739  0.465975
Te2623  Te  0.716279  0.204318  0.500000
Mo1312  Mo  0.720067  0.197739  0.482988
Te2624  Te  0.716279  0.204318  0.465975
Te2625  Te  0.727642  0.158265  0.500000
Mo1313  Mo  0.731430  0.164844  0.482988
Te2626  Te  0.727642  0.158265  0.465975
Te2627  Te  0.739006  0.164844  0.500000
Mo1314  Mo  0.742794  0.158265  0.482988
Te2628  Te  0.739006  0.164844  0.465975
Te2629  Te  0.727642  0.171423  0.500000
Mo1315  Mo  0.731430  0.178002  0.482988
Te2630  Te  0.727642  0.171423  0.465975
Te2631  Te  0.739006  0.178002  0.500000
Mo1316  Mo  0.742794  0.171423  0.482988
Te2632  Te  0.739006  0.178002  0.465975
Te2633  Te  0.727642  0.184581  0.500000
Mo1317  Mo  0.731430  0.191160  0.482988
Te2634  Te  0.727642  0.184581  0.465975
Te2635  Te  0.739006  0.191160  0.500000
Mo1318  Mo  0.742794  0.184581  0.482988
Te2636  Te  0.739006  0.191160  0.465975
Te2637  Te  0.727642  0.197739  0.500000
Mo1319  Mo  0.731430  0.204318  0.482988
Te2638  Te  0.727642  0.197739  0.465975
Te2639  Te  0.739006  0.204318  0.500000
Mo1320  Mo  0.742794  0.197739  0.482988
Te2640  Te  0.739006  0.204318  0.465975
Te2641  Te  0.750370  0.158265  0.500000
Mo1321  Mo  0.754158  0.164844  0.482988
Te2642  Te  0.750370  0.158265  0.465975
Te2643  Te  0.761733  0.164844  0.500000
Mo1322  Mo  0.765521  0.158265  0.482988
Te2644  Te  0.761733  0.164844  0.465975
Te2645  Te  0.750370  0.171423  0.500000
Mo1323  Mo  0.754158  0.178002  0.482988
Te2646  Te  0.750370  0.171423  0.465975
Te2647  Te  0.761733  0.178002  0.500000
Mo1324  Mo  0.765521  0.171423  0.482988
Te2648  Te  0.761733  0.178002  0.465975
Te2649  Te  0.750370  0.184581  0.500000
Mo1325  Mo  0.754158  0.191160  0.482988
Te2650  Te  0.750370  0.184581  0.465975
Te2651  Te  0.761733  0.191160  0.500000
Mo1326  Mo  0.765521  0.184581  0.482988
Te2652  Te  0.761733  0.191160  0.465975
Te2653  Te  0.750370  0.197739  0.500000
Mo1327  Mo  0.754158  0.204318  0.482988
Te2654  Te  0.750370  0.197739  0.465975
Te2655  Te  0.761733  0.204318  0.500000
Mo1328  Mo  0.765521  0.197739  0.482988
Te2656  Te  0.761733  0.204318  0.465975
Te2657  Te  0.773097  0.158265  0.500000
Mo1329  Mo  0.776885  0.164844  0.482988
Te2658  Te  0.773097  0.158265  0.465975
Te2659  Te  0.784461  0.164844  0.500000
Mo1330  Mo  0.788248  0.158265  0.482988
Te2660  Te  0.784461  0.164844  0.465975
Te2661  Te  0.773097  0.171423  0.500000
Mo1331  Mo  0.776885  0.178002  0.482988
Te2662  Te  0.773097  0.171423  0.465975
Te2663  Te  0.784461  0.178002  0.500000
Mo1332  Mo  0.788248  0.171423  0.482988
Te2664  Te  0.784461  0.178002  0.465975
Te2665  Te  0.773097  0.184581  0.500000
Mo1333  Mo  0.776885  0.191160  0.482988
Te2666  Te  0.773097  0.184581  0.465975
Te2667  Te  0.784461  0.191160  0.500000
Mo1334  Mo  0.788248  0.184581  0.482988
Te2668  Te  0.784461  0.191160  0.465975
Te2669  Te  0.773097  0.197739  0.500000
Mo1335  Mo  0.776885  0.204318  0.482988
Te2670  Te  0.773097  0.197739  0.465975
Te2671  Te  0.784461  0.204318  0.500000
Mo1336  Mo  0.788248  0.197739  0.482988
Te2672  Te  0.784461  0.204318  0.465975
Te2673  Te  0.795824  0.158265  0.500000
Mo1337  Mo  0.799612  0.164844  0.482988
Te2674  Te  0.795824  0.158265  0.465975
Te2675  Te  0.807188  0.164844  0.500000
Mo1338  Mo  0.810976  0.158265  0.482988
Te2676  Te  0.807188  0.164844  0.465975
Te2677  Te  0.795824  0.171423  0.500000
Mo1339  Mo  0.799612  0.178002  0.482988
Te2678  Te  0.795824  0.171423  0.465975
Te2679  Te  0.807188  0.178002  0.500000
Mo1340  Mo  0.810976  0.171423  0.482988
Te2680  Te  0.807188  0.178002  0.465975
Te2681  Te  0.795824  0.184581  0.500000
Mo1341  Mo  0.799612  0.191160  0.482988
Te2682  Te  0.795824  0.184581  0.465975
Te2683  Te  0.807188  0.191160  0.500000
Mo1342  Mo  0.810976  0.184581  0.482988
Te2684  Te  0.807188  0.191160  0.465975
Te2685  Te  0.795824  0.197739  0.500000
Mo1343  Mo  0.799612  0.204318  0.482988
Te2686  Te  0.795824  0.197739  0.465975
Te2687  Te  0.807188  0.204318  0.500000
Mo1344  Mo  0.810976  0.197739  0.482988
Te2688  Te  0.807188  0.204318  0.465975
Te2689  Te  0.818551  0.158265  0.500000
Mo1345  Mo  0.822339  0.164844  0.482988
Te2690  Te  0.818551  0.158265  0.465975
Te2691  Te  0.829915  0.164844  0.500000
Mo1346  Mo  0.833703  0.158265  0.482988
Te2692  Te  0.829915  0.164844  0.465975
Te2693  Te  0.818551  0.171423  0.500000
Mo1347  Mo  0.822339  0.178002  0.482988
Te2694  Te  0.818551  0.171423  0.465975
Te2695  Te  0.829915  0.178002  0.500000
Mo1348  Mo  0.833703  0.171423  0.482988
Te2696  Te  0.829915  0.178002  0.465975
Te2697  Te  0.818551  0.184581  0.500000
Mo1349  Mo  0.822339  0.191160  0.482988
Te2698  Te  0.818551  0.184581  0.465975
Te2699  Te  0.829915  0.191160  0.500000
Mo1350  Mo  0.833703  0.184581  0.482988
Te2700  Te  0.829915  0.191160  0.465975
Te2701  Te  0.818551  0.197739  0.500000
Mo1351  Mo  0.822339  0.204318  0.482988
Te2702  Te  0.818551  0.197739  0.465975
Te2703  Te  0.829915  0.204318  0.500000
Mo1352  Mo  0.833703  0.197739  0.482988
Te2704  Te  0.829915  0.204318  0.465975
Te2705  Te  0.841279  0.158265  0.500000
Mo1353  Mo  0.845067  0.164844  0.482988
Te2706  Te  0.841279  0.158265  0.465975
Te2707  Te  0.852642  0.164844  0.500000
Mo1354  Mo  0.856430  0.158265  0.482988
Te2708  Te  0.852642  0.164844  0.465975
Te2709  Te  0.841279  0.171423  0.500000
Mo1355  Mo  0.845067  0.178002  0.482988
Te2710  Te  0.841279  0.171423  0.465975
Te2711  Te  0.852642  0.178002  0.500000
Mo1356  Mo  0.856430  0.171423  0.482988
Te2712  Te  0.852642  0.178002  0.465975
Te2713  Te  0.841279  0.184581  0.500000
Mo1357  Mo  0.845067  0.191160  0.482988
Te2714  Te  0.841279  0.184581  0.465975
Te2715  Te  0.852642  0.191160  0.500000
Mo1358  Mo  0.856430  0.184581  0.482988
Te2716  Te  0.852642  0.191160  0.465975
Te2717  Te  0.841279  0.197739  0.500000
Mo1359  Mo  0.845067  0.204318  0.482988
Te2718  Te  0.841279  0.197739  0.465975
Te2719  Te  0.852642  0.204318  0.500000
Mo1360  Mo  0.856430  0.197739  0.482988
Te2720  Te  0.852642  0.204318  0.465975
Te2721  Te  0.864006  0.158265  0.500000
Mo1361  Mo  0.867794  0.164844  0.482988
Te2722  Te  0.864006  0.158265  0.465975
Te2723  Te  0.875370  0.164844  0.500000
Mo1362  Mo  0.879158  0.158265  0.482988
Te2724  Te  0.875370  0.164844  0.465975
Te2725  Te  0.864006  0.171423  0.500000
Mo1363  Mo  0.867794  0.178002  0.482988
Te2726  Te  0.864006  0.171423  0.465975
Te2727  Te  0.875370  0.178002  0.500000
Mo1364  Mo  0.879158  0.171423  0.482988
Te2728  Te  0.875370  0.178002  0.465975
Te2729  Te  0.864006  0.184581  0.500000
Mo1365  Mo  0.867794  0.191160  0.482988
Te2730  Te  0.864006  0.184581  0.465975
Te2731  Te  0.875370  0.191160  0.500000
Mo1366  Mo  0.879158  0.184581  0.482988
Te2732  Te  0.875370  0.191160  0.465975
Te2733  Te  0.864006  0.197739  0.500000
Mo1367  Mo  0.867794  0.204318  0.482988
Te2734  Te  0.864006  0.197739  0.465975
Te2735  Te  0.875370  0.204318  0.500000
Mo1368  Mo  0.879158  0.197739  0.482988
Te2736  Te  0.875370  0.204318  0.465975
Te2737  Te  0.886733  0.158265  0.500000
Mo1369  Mo  0.890521  0.164844  0.482988
Te2738  Te  0.886733  0.158265  0.465975
Te2739  Te  0.898097  0.164844  0.500000
Mo1370  Mo  0.901885  0.158265  0.482988
Te2740  Te  0.898097  0.164844  0.465975
Te2741  Te  0.886733  0.171423  0.500000
Mo1371  Mo  0.890521  0.178002  0.482988
Te2742  Te  0.886733  0.171423  0.465975
Te2743  Te  0.898097  0.178002  0.500000
Mo1372  Mo  0.901885  0.171423  0.482988
Te2744  Te  0.898097  0.178002  0.465975
Te2745  Te  0.886733  0.184581  0.500000
Mo1373  Mo  0.890521  0.191160  0.482988
Te2746  Te  0.886733  0.184581  0.465975
Te2747  Te  0.898097  0.191160  0.500000
Mo1374  Mo  0.901885  0.184581  0.482988
Te2748  Te  0.898097  0.191160  0.465975
Te2749  Te  0.886733  0.197739  0.500000
Mo1375  Mo  0.890521  0.204318  0.482988
Te2750  Te  0.886733  0.197739  0.465975
Te2751  Te  0.898097  0.204318  0.500000
Mo1376  Mo  0.901885  0.197739  0.482988
Te2752  Te  0.898097  0.204318  0.465975
Te2753  Te  0.909461  0.158265  0.500000
Mo1377  Mo  0.913248  0.164844  0.482988
Te2754  Te  0.909461  0.158265  0.465975
Te2755  Te  0.920824  0.164844  0.500000
Mo1378  Mo  0.924612  0.158265  0.482988
Te2756  Te  0.920824  0.164844  0.465975
Te2757  Te  0.909461  0.171423  0.500000
Mo1379  Mo  0.913248  0.178002  0.482988
Te2758  Te  0.909461  0.171423  0.465975
Te2759  Te  0.920824  0.178002  0.500000
Mo1380  Mo  0.924612  0.171423  0.482988
Te2760  Te  0.920824  0.178002  0.465975
Te2761  Te  0.909461  0.184581  0.500000
Mo1381  Mo  0.913248  0.191160  0.482988
Te2762  Te  0.909461  0.184581  0.465975
Te2763  Te  0.920824  0.191160  0.500000
Mo1382  Mo  0.924612  0.184581  0.482988
Te2764  Te  0.920824  0.191160  0.465975
Te2765  Te  0.909461  0.197739  0.500000
Mo1383  Mo  0.913248  0.204318  0.482988
Te2766  Te  0.909461  0.197739  0.465975
Te2767  Te  0.920824  0.204318  0.500000
Mo1384  Mo  0.924612  0.197739  0.482988
Te2768  Te  0.920824  0.204318  0.465975
Te2769  Te  0.932188  0.158265  0.500000
Mo1385  Mo  0.935976  0.164844  0.482988
Te2770  Te  0.932188  0.158265  0.465975
Te2771  Te  0.943552  0.164844  0.500000
Mo1386  Mo  0.947339  0.158265  0.482988
Te2772  Te  0.943552  0.164844  0.465975
Te2773  Te  0.932188  0.171423  0.500000
Mo1387  Mo  0.935976  0.178002  0.482988
Te2774  Te  0.932188  0.171423  0.465975
Te2775  Te  0.943552  0.178002  0.500000
Mo1388  Mo  0.947339  0.171423  0.482988
Te2776  Te  0.943552  0.178002  0.465975
Te2777  Te  0.932188  0.184581  0.500000
Mo1389  Mo  0.935976  0.191160  0.482988
Te2778  Te  0.932188  0.184581  0.465975
Te2779  Te  0.943552  0.191160  0.500000
Mo1390  Mo  0.947339  0.184581  0.482988
Te2780  Te  0.943552  0.191160  0.465975
Te2781  Te  0.932188  0.197739  0.500000
Mo1391  Mo  0.935976  0.204318  0.482988
Te2782  Te  0.932188  0.197739  0.465975
Te2783  Te  0.943552  0.204318  0.500000
Mo1392  Mo  0.947339  0.197739  0.482988
Te2784  Te  0.943552  0.204318  0.465975
Te2785  Te  0.954915  0.158265  0.500000
Mo1393  Mo  0.958703  0.164844  0.482988
Te2786  Te  0.954915  0.158265  0.465975
Te2787  Te  0.966279  0.164844  0.500000
Mo1394  Mo  0.970067  0.158265  0.482988
Te2788  Te  0.966279  0.164844  0.465975
Te2789  Te  0.954915  0.171423  0.500000
Mo1395  Mo  0.958703  0.178002  0.482988
Te2790  Te  0.954915  0.171423  0.465975
Te2791  Te  0.966279  0.178002  0.500000
Mo1396  Mo  0.970067  0.171423  0.482988
Te2792  Te  0.966279  0.178002  0.465975
Te2793  Te  0.954915  0.184581  0.500000
Mo1397  Mo  0.958703  0.191160  0.482988
Te2794  Te  0.954915  0.184581  0.465975
Te2795  Te  0.966279  0.191160  0.500000
Mo1398  Mo  0.970067  0.184581  0.482988
Te2796  Te  0.966279  0.191160  0.465975
Te2797  Te  0.954915  0.197739  0.500000
Mo1399  Mo  0.958703  0.204318  0.482988
Te2798  Te  0.954915  0.197739  0.465975
Te2799  Te  0.966279  0.204318  0.500000
Mo1400  Mo  0.970067  0.197739  0.482988
Te2800  Te  0.966279  0.204318  0.465975
Te2801  Te  0.977642  0.158265  0.500000
Mo1401  Mo  0.981430  0.164844  0.482988
Te2802  Te  0.977642  0.158265  0.465975
Te2803  Te  0.989006  0.164844  0.500000
Mo1402  Mo  0.992794  0.158265  0.482988
Te2804  Te  0.989006  0.164844  0.465975
Te2805  Te  0.977642  0.171423  0.500000
Mo1403  Mo  0.981430  0.178002  0.482988
Te2806  Te  0.977642  0.171423  0.465975
Te2807  Te  0.989006  0.178002  0.500000
Mo1404  Mo  0.992794  0.171423  0.482988
Te2808  Te  0.989006  0.178002  0.465975
Te2809  Te  0.977642  0.184581  0.500000
Mo1405  Mo  0.981430  0.191160  0.482988
Te2810  Te  0.977642  0.184581  0.465975
Te2811  Te  0.989006  0.191160  0.500000
Mo1406  Mo  0.992794  0.184581  0.482988
Te2812  Te  0.989006  0.191160  0.465975
Te2813  Te  0.977642  0.197739  0.500000
Mo1407  Mo  0.981430  0.204318  0.482988
Te2814  Te  0.977642  0.197739  0.465975
Te2815  Te  0.989006  0.204318  0.500000
Mo1408  Mo  0.992794  0.197739  0.482988
Te2816  Te  0.989006  0.204318  0.465975
Te2817  Te  0.000370  0.210897  0.500000
Mo1409  Mo  0.004158  0.217476  0.482988
Te2818  Te  0.000370  0.210897  0.465975
Te2819  Te  0.011733  0.217476  0.500000
Mo1410  Mo  0.015521  0.210897  0.482988
Te2820  Te  0.011733  0.217476  0.465975
Te2821  Te  0.000370  0.224055  0.500000
Mo1411  Mo  0.004158  0.230634  0.482988
Te2822  Te  0.000370  0.224055  0.465975
Te2823  Te  0.011733  0.230634  0.500000
Mo1412  Mo  0.015521  0.224055  0.482988
Te2824  Te  0.011733  0.230634  0.465975
Te2825  Te  0.000370  0.237213  0.500000
Mo1413  Mo  0.004158  0.243792  0.482988
Te2826  Te  0.000370  0.237213  0.465975
Te2827  Te  0.011733  0.243792  0.500000
Mo1414  Mo  0.015521  0.237213  0.482988
Te2828  Te  0.011733  0.243792  0.465975
Te2829  Te  0.000370  0.250371  0.500000
Mo1415  Mo  0.004158  0.256950  0.482988
Te2830  Te  0.000370  0.250371  0.465975
Te2831  Te  0.011733  0.256950  0.500000
Mo1416  Mo  0.015521  0.250371  0.482988
Te2832  Te  0.011733  0.256950  0.465975
Te2833  Te  0.023097  0.210897  0.500000
Mo1417  Mo  0.026885  0.217476  0.482988
Te2834  Te  0.023097  0.210897  0.465975
Te2835  Te  0.034461  0.217476  0.500000
Mo1418  Mo  0.038249  0.210897  0.482988
Te2836  Te  0.034461  0.217476  0.465975
Te2837  Te  0.023097  0.224055  0.500000
Mo1419  Mo  0.026885  0.230634  0.482988
Te2838  Te  0.023097  0.224055  0.465975
Te2839  Te  0.034461  0.230634  0.500000
Mo1420  Mo  0.038249  0.224055  0.482988
Te2840  Te  0.034461  0.230634  0.465975
Te2841  Te  0.023097  0.237213  0.500000
Mo1421  Mo  0.026885  0.243792  0.482988
Te2842  Te  0.023097  0.237213  0.465975
Te2843  Te  0.034461  0.243792  0.500000
Mo1422  Mo  0.038249  0.237213  0.482988
Te2844  Te  0.034461  0.243792  0.465975
Te2845  Te  0.023097  0.250371  0.500000
Mo1423  Mo  0.026885  0.256950  0.482988
Te2846  Te  0.023097  0.250371  0.465975
Te2847  Te  0.034461  0.256950  0.500000
Mo1424  Mo  0.038249  0.250371  0.482988
Te2848  Te  0.034461  0.256950  0.465975
Te2849  Te  0.045824  0.210897  0.500000
Mo1425  Mo  0.049612  0.217476  0.482988
Te2850  Te  0.045824  0.210897  0.465975
Te2851  Te  0.057188  0.217476  0.500000
Mo1426  Mo  0.060976  0.210897  0.482988
Te2852  Te  0.057188  0.217476  0.465975
Te2853  Te  0.045824  0.224055  0.500000
Mo1427  Mo  0.049612  0.230634  0.482988
Te2854  Te  0.045824  0.224055  0.465975
Te2855  Te  0.057188  0.230634  0.500000
Mo1428  Mo  0.060976  0.224055  0.482988
Te2856  Te  0.057188  0.230634  0.465975
Te2857  Te  0.045824  0.237213  0.500000
Mo1429  Mo  0.049612  0.243792  0.482988
Te2858  Te  0.045824  0.237213  0.465975
Te2859  Te  0.057188  0.243792  0.500000
Mo1430  Mo  0.060976  0.237213  0.482988
Te2860  Te  0.057188  0.243792  0.465975
Te2861  Te  0.045824  0.250371  0.500000
Mo1431  Mo  0.049612  0.256950  0.482988
Te2862  Te  0.045824  0.250371  0.465975
Te2863  Te  0.057188  0.256950  0.500000
Mo1432  Mo  0.060976  0.250371  0.482988
Te2864  Te  0.057188  0.256950  0.465975
Te2865  Te  0.068552  0.210897  0.500000
Mo1433  Mo  0.072339  0.217476  0.482988
Te2866  Te  0.068552  0.210897  0.465975
Te2867  Te  0.079915  0.217476  0.500000
Mo1434  Mo  0.083703  0.210897  0.482988
Te2868  Te  0.079915  0.217476  0.465975
Te2869  Te  0.068552  0.224055  0.500000
Mo1435  Mo  0.072339  0.230634  0.482988
Te2870  Te  0.068552  0.224055  0.465975
Te2871  Te  0.079915  0.230634  0.500000
Mo1436  Mo  0.083703  0.224055  0.482988
Te2872  Te  0.079915  0.230634  0.465975
Te2873  Te  0.068552  0.237213  0.500000
Mo1437  Mo  0.072339  0.243792  0.482988
Te2874  Te  0.068552  0.237213  0.465975
Te2875  Te  0.079915  0.243792  0.500000
Mo1438  Mo  0.083703  0.237213  0.482988
Te2876  Te  0.079915  0.243792  0.465975
Te2877  Te  0.068552  0.250371  0.500000
Mo1439  Mo  0.072339  0.256950  0.482988
Te2878  Te  0.068552  0.250371  0.465975
Te2879  Te  0.079915  0.256950  0.500000
Mo1440  Mo  0.083703  0.250371  0.482988
Te2880  Te  0.079915  0.256950  0.465975
Te2881  Te  0.091279  0.210897  0.500000
Mo1441  Mo  0.095067  0.217476  0.482988
Te2882  Te  0.091279  0.210897  0.465975
Te2883  Te  0.102642  0.217476  0.500000
Mo1442  Mo  0.106430  0.210897  0.482988
Te2884  Te  0.102642  0.217476  0.465975
Te2885  Te  0.091279  0.224055  0.500000
Mo1443  Mo  0.095067  0.230634  0.482988
Te2886  Te  0.091279  0.224055  0.465975
Te2887  Te  0.102642  0.230634  0.500000
Mo1444  Mo  0.106430  0.224055  0.482988
Te2888  Te  0.102642  0.230634  0.465975
Te2889  Te  0.091279  0.237213  0.500000
Mo1445  Mo  0.095067  0.243792  0.482988
Te2890  Te  0.091279  0.237213  0.465975
Te2891  Te  0.102642  0.243792  0.500000
Mo1446  Mo  0.106430  0.237213  0.482988
Te2892  Te  0.102642  0.243792  0.465975
Te2893  Te  0.091279  0.250371  0.500000
Mo1447  Mo  0.095067  0.256950  0.482988
Te2894  Te  0.091279  0.250371  0.465975
Te2895  Te  0.102642  0.256950  0.500000
Mo1448  Mo  0.106430  0.250371  0.482988
Te2896  Te  0.102642  0.256950  0.465975
Te2897  Te  0.114006  0.210897  0.500000
Mo1449  Mo  0.117794  0.217476  0.482988
Te2898  Te  0.114006  0.210897  0.465975
Te2899  Te  0.125370  0.217476  0.500000
Mo1450  Mo  0.129158  0.210897  0.482988
Te2900  Te  0.125370  0.217476  0.465975
Te2901  Te  0.114006  0.224055  0.500000
Mo1451  Mo  0.117794  0.230634  0.482988
Te2902  Te  0.114006  0.224055  0.465975
Te2903  Te  0.125370  0.230634  0.500000
Mo1452  Mo  0.129158  0.224055  0.482988
Te2904  Te  0.125370  0.230634  0.465975
Te2905  Te  0.114006  0.237213  0.500000
Mo1453  Mo  0.117794  0.243792  0.482988
Te2906  Te  0.114006  0.237213  0.465975
Te2907  Te  0.125370  0.243792  0.500000
Mo1454  Mo  0.129158  0.237213  0.482988
Te2908  Te  0.125370  0.243792  0.465975
Te2909  Te  0.114006  0.250371  0.500000
Mo1455  Mo  0.117794  0.256950  0.482988
Te2910  Te  0.114006  0.250371  0.465975
Te2911  Te  0.125370  0.256950  0.500000
Mo1456  Mo  0.129158  0.250371  0.482988
Te2912  Te  0.125370  0.256950  0.465975
Te2913  Te  0.136733  0.210897  0.500000
Mo1457  Mo  0.140521  0.217476  0.482988
Te2914  Te  0.136733  0.210897  0.465975
Te2915  Te  0.148097  0.217476  0.500000
Mo1458  Mo  0.151885  0.210897  0.482988
Te2916  Te  0.148097  0.217476  0.465975
Te2917  Te  0.136733  0.224055  0.500000
Mo1459  Mo  0.140521  0.230634  0.482988
Te2918  Te  0.136733  0.224055  0.465975
Te2919  Te  0.148097  0.230634  0.500000
Mo1460  Mo  0.151885  0.224055  0.482988
Te2920  Te  0.148097  0.230634  0.465975
Te2921  Te  0.136733  0.237213  0.500000
Mo1461  Mo  0.140521  0.243792  0.482988
Te2922  Te  0.136733  0.237213  0.465975
Te2923  Te  0.148097  0.243792  0.500000
Mo1462  Mo  0.151885  0.237213  0.482988
Te2924  Te  0.148097  0.243792  0.465975
Te2925  Te  0.136733  0.250371  0.500000
Mo1463  Mo  0.140521  0.256950  0.482988
Te2926  Te  0.136733  0.250371  0.465975
Te2927  Te  0.148097  0.256950  0.500000
Mo1464  Mo  0.151885  0.250371  0.482988
Te2928  Te  0.148097  0.256950  0.465975
Te2929  Te  0.159461  0.210897  0.500000
Mo1465  Mo  0.163248  0.217476  0.482988
Te2930  Te  0.159461  0.210897  0.465975
Te2931  Te  0.170824  0.217476  0.500000
Mo1466  Mo  0.174612  0.210897  0.482988
Te2932  Te  0.170824  0.217476  0.465975
Te2933  Te  0.159461  0.224055  0.500000
Mo1467  Mo  0.163248  0.230634  0.482988
Te2934  Te  0.159461  0.224055  0.465975
Te2935  Te  0.170824  0.230634  0.500000
Mo1468  Mo  0.174612  0.224055  0.482988
Te2936  Te  0.170824  0.230634  0.465975
Te2937  Te  0.159461  0.237213  0.500000
Mo1469  Mo  0.163248  0.243792  0.482988
Te2938  Te  0.159461  0.237213  0.465975
Te2939  Te  0.170824  0.243792  0.500000
Mo1470  Mo  0.174612  0.237213  0.482988
Te2940  Te  0.170824  0.243792  0.465975
Te2941  Te  0.159461  0.250371  0.500000
Mo1471  Mo  0.163248  0.256950  0.482988
Te2942  Te  0.159461  0.250371  0.465975
Te2943  Te  0.170824  0.256950  0.500000
Mo1472  Mo  0.174612  0.250371  0.482988
Te2944  Te  0.170824  0.256950  0.465975
Te2945  Te  0.182188  0.210897  0.500000
Mo1473  Mo  0.185976  0.217476  0.482988
Te2946  Te  0.182188  0.210897  0.465975
Te2947  Te  0.193551  0.217476  0.500000
Mo1474  Mo  0.197339  0.210897  0.482988
Te2948  Te  0.193551  0.217476  0.465975
Te2949  Te  0.182188  0.224055  0.500000
Mo1475  Mo  0.185976  0.230634  0.482988
Te2950  Te  0.182188  0.224055  0.465975
Te2951  Te  0.193551  0.230634  0.500000
Mo1476  Mo  0.197339  0.224055  0.482988
Te2952  Te  0.193551  0.230634  0.465975
Te2953  Te  0.182188  0.237213  0.500000
Mo1477  Mo  0.185976  0.243792  0.482988
Te2954  Te  0.182188  0.237213  0.465975
Te2955  Te  0.193551  0.243792  0.500000
Mo1478  Mo  0.197339  0.237213  0.482988
Te2956  Te  0.193551  0.243792  0.465975
Te2957  Te  0.182188  0.250371  0.500000
Mo1479  Mo  0.185976  0.256950  0.482988
Te2958  Te  0.182188  0.250371  0.465975
Te2959  Te  0.193551  0.256950  0.500000
Mo1480  Mo  0.197339  0.250371  0.482988
Te2960  Te  0.193551  0.256950  0.465975
Te2961  Te  0.204915  0.210897  0.500000
Mo1481  Mo  0.208703  0.217476  0.482988
Te2962  Te  0.204915  0.210897  0.465975
Te2963  Te  0.216279  0.217476  0.500000
Mo1482  Mo  0.220067  0.210897  0.482988
Te2964  Te  0.216279  0.217476  0.465975
Te2965  Te  0.204915  0.224055  0.500000
Mo1483  Mo  0.208703  0.230634  0.482988
Te2966  Te  0.204915  0.224055  0.465975
Te2967  Te  0.216279  0.230634  0.500000
Mo1484  Mo  0.220067  0.224055  0.482988
Te2968  Te  0.216279  0.230634  0.465975
Te2969  Te  0.204915  0.237213  0.500000
Mo1485  Mo  0.208703  0.243792  0.482988
Te2970  Te  0.204915  0.237213  0.465975
Te2971  Te  0.216279  0.243792  0.500000
Mo1486  Mo  0.220067  0.237213  0.482988
Te2972  Te  0.216279  0.243792  0.465975
Te2973  Te  0.204915  0.250371  0.500000
Mo1487  Mo  0.208703  0.256950  0.482988
Te2974  Te  0.204915  0.250371  0.465975
Te2975  Te  0.216279  0.256950  0.500000
Mo1488  Mo  0.220067  0.250371  0.482988
Te2976  Te  0.216279  0.256950  0.465975
Te2977  Te  0.227642  0.210897  0.500000
Mo1489  Mo  0.231430  0.217476  0.482988
Te2978  Te  0.227642  0.210897  0.465975
Te2979  Te  0.239006  0.217476  0.500000
Mo1490  Mo  0.242794  0.210897  0.482988
Te2980  Te  0.239006  0.217476  0.465975
Te2981  Te  0.227642  0.224055  0.500000
Mo1491  Mo  0.231430  0.230634  0.482988
Te2982  Te  0.227642  0.224055  0.465975
Te2983  Te  0.239006  0.230634  0.500000
Mo1492  Mo  0.242794  0.224055  0.482988
Te2984  Te  0.239006  0.230634  0.465975
Te2985  Te  0.227642  0.237213  0.500000
Mo1493  Mo  0.231430  0.243792  0.482988
Te2986  Te  0.227642  0.237213  0.465975
Te2987  Te  0.239006  0.243792  0.500000
Mo1494  Mo  0.242794  0.237213  0.482988
Te2988  Te  0.239006  0.243792  0.465975
Te2989  Te  0.227642  0.250371  0.500000
Mo1495  Mo  0.231430  0.256950  0.482988
Te2990  Te  0.227642  0.250371  0.465975
Te2991  Te  0.239006  0.256950  0.500000
Mo1496  Mo  0.242794  0.250371  0.482988
Te2992  Te  0.239006  0.256950  0.465975
Te2993  Te  0.250370  0.210897  0.500000
Mo1497  Mo  0.254158  0.217476  0.482988
Te2994  Te  0.250370  0.210897  0.465975
Te2995  Te  0.261733  0.217476  0.500000
Mo1498  Mo  0.265521  0.210897  0.482988
Te2996  Te  0.261733  0.217476  0.465975
Te2997  Te  0.250370  0.224055  0.500000
Mo1499  Mo  0.254158  0.230634  0.482988
Te2998  Te  0.250370  0.224055  0.465975
Te2999  Te  0.261733  0.230634  0.500000
Mo1500  Mo  0.265521  0.224055  0.482988
Te3000  Te  0.261733  0.230634  0.465975
Te3001  Te  0.250370  0.237213  0.500000
Mo1501  Mo  0.254158  0.243792  0.482988
Te3002  Te  0.250370  0.237213  0.465975
Te3003  Te  0.261733  0.243792  0.500000
Mo1502  Mo  0.265521  0.237213  0.482988
Te3004  Te  0.261733  0.243792  0.465975
Te3005  Te  0.250370  0.250371  0.500000
Mo1503  Mo  0.254158  0.256950  0.482988
Te3006  Te  0.250370  0.250371  0.465975
Te3007  Te  0.261733  0.256950  0.500000
Mo1504  Mo  0.265521  0.250371  0.482988
Te3008  Te  0.261733  0.256950  0.465975
Te3009  Te  0.273097  0.210897  0.500000
Mo1505  Mo  0.276885  0.217476  0.482988
Te3010  Te  0.273097  0.210897  0.465975
Te3011  Te  0.284461  0.217476  0.500000
Mo1506  Mo  0.288248  0.210897  0.482988
Te3012  Te  0.284461  0.217476  0.465975
Te3013  Te  0.273097  0.224055  0.500000
Mo1507  Mo  0.276885  0.230634  0.482988
Te3014  Te  0.273097  0.224055  0.465975
Te3015  Te  0.284461  0.230634  0.500000
Mo1508  Mo  0.288248  0.224055  0.482988
Te3016  Te  0.284461  0.230634  0.465975
Te3017  Te  0.273097  0.237213  0.500000
Mo1509  Mo  0.276885  0.243792  0.482988
Te3018  Te  0.273097  0.237213  0.465975
Te3019  Te  0.284461  0.243792  0.500000
Mo1510  Mo  0.288248  0.237213  0.482988
Te3020  Te  0.284461  0.243792  0.465975
Te3021  Te  0.273097  0.250371  0.500000
Mo1511  Mo  0.276885  0.256950  0.482988
Te3022  Te  0.273097  0.250371  0.465975
Te3023  Te  0.284461  0.256950  0.500000
Mo1512  Mo  0.288248  0.250371  0.482988
Te3024  Te  0.284461  0.256950  0.465975
Te3025  Te  0.295824  0.210897  0.500000
Mo1513  Mo  0.299612  0.217476  0.482988
Te3026  Te  0.295824  0.210897  0.465975
Te3027  Te  0.307188  0.217476  0.500000
Mo1514  Mo  0.310976  0.210897  0.482988
Te3028  Te  0.307188  0.217476  0.465975
Te3029  Te  0.295824  0.224055  0.500000
Mo1515  Mo  0.299612  0.230634  0.482988
Te3030  Te  0.295824  0.224055  0.465975
Te3031  Te  0.307188  0.230634  0.500000
Mo1516  Mo  0.310976  0.224055  0.482988
Te3032  Te  0.307188  0.230634  0.465975
Te3033  Te  0.295824  0.237213  0.500000
Mo1517  Mo  0.299612  0.243792  0.482988
Te3034  Te  0.295824  0.237213  0.465975
Te3035  Te  0.307188  0.243792  0.500000
Mo1518  Mo  0.310976  0.237213  0.482988
Te3036  Te  0.307188  0.243792  0.465975
Te3037  Te  0.295824  0.250371  0.500000
Mo1519  Mo  0.299612  0.256950  0.482988
Te3038  Te  0.295824  0.250371  0.465975
Te3039  Te  0.307188  0.256950  0.500000
Mo1520  Mo  0.310976  0.250371  0.482988
Te3040  Te  0.307188  0.256950  0.465975
Te3041  Te  0.318551  0.210897  0.500000
Mo1521  Mo  0.322339  0.217476  0.482988
Te3042  Te  0.318551  0.210897  0.465975
Te3043  Te  0.329915  0.217476  0.500000
Mo1522  Mo  0.333703  0.210897  0.482988
Te3044  Te  0.329915  0.217476  0.465975
Te3045  Te  0.318551  0.224055  0.500000
Mo1523  Mo  0.322339  0.230634  0.482988
Te3046  Te  0.318551  0.224055  0.465975
Te3047  Te  0.329915  0.230634  0.500000
Mo1524  Mo  0.333703  0.224055  0.482988
Te3048  Te  0.329915  0.230634  0.465975
Te3049  Te  0.318551  0.237213  0.500000
Mo1525  Mo  0.322339  0.243792  0.482988
Te3050  Te  0.318551  0.237213  0.465975
Te3051  Te  0.329915  0.243792  0.500000
Mo1526  Mo  0.333703  0.237213  0.482988
Te3052  Te  0.329915  0.243792  0.465975
Te3053  Te  0.318551  0.250371  0.500000
Mo1527  Mo  0.322339  0.256950  0.482988
Te3054  Te  0.318551  0.250371  0.465975
Te3055  Te  0.329915  0.256950  0.500000
Mo1528  Mo  0.333703  0.250371  0.482988
Te3056  Te  0.329915  0.256950  0.465975
Te3057  Te  0.341279  0.210897  0.500000
Mo1529  Mo  0.345067  0.217476  0.482988
Te3058  Te  0.341279  0.210897  0.465975
Te3059  Te  0.352642  0.217476  0.500000
Mo1530  Mo  0.356430  0.210897  0.482988
Te3060  Te  0.352642  0.217476  0.465975
Te3061  Te  0.341279  0.224055  0.500000
Mo1531  Mo  0.345067  0.230634  0.482988
Te3062  Te  0.341279  0.224055  0.465975
Te3063  Te  0.352642  0.230634  0.500000
Mo1532  Mo  0.356430  0.224055  0.482988
Te3064  Te  0.352642  0.230634  0.465975
Te3065  Te  0.341279  0.237213  0.500000
Mo1533  Mo  0.345067  0.243792  0.482988
Te3066  Te  0.341279  0.237213  0.465975
Te3067  Te  0.352642  0.243792  0.500000
Mo1534  Mo  0.356430  0.237213  0.482988
Te3068  Te  0.352642  0.243792  0.465975
Te3069  Te  0.341279  0.250371  0.500000
Mo1535  Mo  0.345067  0.256950  0.482988
Te3070  Te  0.341279  0.250371  0.465975
Te3071  Te  0.352642  0.256950  0.500000
Mo1536  Mo  0.356430  0.250371  0.482988
Te3072  Te  0.352642  0.256950  0.465975
Te3073  Te  0.364006  0.210897  0.500000
Mo1537  Mo  0.367794  0.217476  0.482988
Te3074  Te  0.364006  0.210897  0.465975
Te3075  Te  0.375370  0.217476  0.500000
Mo1538  Mo  0.379158  0.210897  0.482988
Te3076  Te  0.375370  0.217476  0.465975
Te3077  Te  0.364006  0.224055  0.500000
Mo1539  Mo  0.367794  0.230634  0.482988
Te3078  Te  0.364006  0.224055  0.465975
Te3079  Te  0.375370  0.230634  0.500000
Mo1540  Mo  0.379158  0.224055  0.482988
Te3080  Te  0.375370  0.230634  0.465975
Te3081  Te  0.364006  0.237213  0.500000
Mo1541  Mo  0.367794  0.243792  0.482988
Te3082  Te  0.364006  0.237213  0.465975
Te3083  Te  0.375370  0.243792  0.500000
Mo1542  Mo  0.379158  0.237213  0.482988
Te3084  Te  0.375370  0.243792  0.465975
Te3085  Te  0.364006  0.250371  0.500000
Mo1543  Mo  0.367794  0.256950  0.482988
Te3086  Te  0.364006  0.250371  0.465975
Te3087  Te  0.375370  0.256950  0.500000
Mo1544  Mo  0.379158  0.250371  0.482988
Te3088  Te  0.375370  0.256950  0.465975
Te3089  Te  0.386733  0.210897  0.500000
Mo1545  Mo  0.390521  0.217476  0.482988
Te3090  Te  0.386733  0.210897  0.465975
Te3091  Te  0.398097  0.217476  0.500000
Mo1546  Mo  0.401885  0.210897  0.482988
Te3092  Te  0.398097  0.217476  0.465975
Te3093  Te  0.386733  0.224055  0.500000
Mo1547  Mo  0.390521  0.230634  0.482988
Te3094  Te  0.386733  0.224055  0.465975
Te3095  Te  0.398097  0.230634  0.500000
Mo1548  Mo  0.401885  0.224055  0.482988
Te3096  Te  0.398097  0.230634  0.465975
Te3097  Te  0.386733  0.237213  0.500000
Mo1549  Mo  0.390521  0.243792  0.482988
Te3098  Te  0.386733  0.237213  0.465975
Te3099  Te  0.398097  0.243792  0.500000
Mo1550  Mo  0.401885  0.237213  0.482988
Te3100  Te  0.398097  0.243792  0.465975
Te3101  Te  0.386733  0.250371  0.500000
Mo1551  Mo  0.390521  0.256950  0.482988
Te3102  Te  0.386733  0.250371  0.465975
Te3103  Te  0.398097  0.256950  0.500000
Mo1552  Mo  0.401885  0.250371  0.482988
Te3104  Te  0.398097  0.256950  0.465975
Te3105  Te  0.409461  0.210897  0.500000
Mo1553  Mo  0.413248  0.217476  0.482988
Te3106  Te  0.409461  0.210897  0.465975
Te3107  Te  0.420824  0.217476  0.500000
Mo1554  Mo  0.424612  0.210897  0.482988
Te3108  Te  0.420824  0.217476  0.465975
Te3109  Te  0.409461  0.224055  0.500000
Mo1555  Mo  0.413248  0.230634  0.482988
Te3110  Te  0.409461  0.224055  0.465975
Te3111  Te  0.420824  0.230634  0.500000
Mo1556  Mo  0.424612  0.224055  0.482988
Te3112  Te  0.420824  0.230634  0.465975
Te3113  Te  0.409461  0.237213  0.500000
Mo1557  Mo  0.413248  0.243792  0.482988
Te3114  Te  0.409461  0.237213  0.465975
Te3115  Te  0.420824  0.243792  0.500000
Mo1558  Mo  0.424612  0.237213  0.482988
Te3116  Te  0.420824  0.243792  0.465975
Te3117  Te  0.409461  0.250371  0.500000
Mo1559  Mo  0.413248  0.256950  0.482988
Te3118  Te  0.409461  0.250371  0.465975
Te3119  Te  0.420824  0.256950  0.500000
Mo1560  Mo  0.424612  0.250371  0.482988
Te3120  Te  0.420824  0.256950  0.465975
Te3121  Te  0.432188  0.210897  0.500000
Mo1561  Mo  0.435976  0.217476  0.482988
Te3122  Te  0.432188  0.210897  0.465975
Te3123  Te  0.443552  0.217476  0.500000
Mo1562  Mo  0.447339  0.210897  0.482988
Te3124  Te  0.443552  0.217476  0.465975
Te3125  Te  0.432188  0.224055  0.500000
Mo1563  Mo  0.435976  0.230634  0.482988
Te3126  Te  0.432188  0.224055  0.465975
Te3127  Te  0.443552  0.230634  0.500000
Mo1564  Mo  0.447339  0.224055  0.482988
Te3128  Te  0.443552  0.230634  0.465975
Te3129  Te  0.432188  0.237213  0.500000
Mo1565  Mo  0.435976  0.243792  0.482988
Te3130  Te  0.432188  0.237213  0.465975
Te3131  Te  0.443552  0.243792  0.500000
Mo1566  Mo  0.447339  0.237213  0.482988
Te3132  Te  0.443552  0.243792  0.465975
Te3133  Te  0.432188  0.250371  0.500000
Mo1567  Mo  0.435976  0.256950  0.482988
Te3134  Te  0.432188  0.250371  0.465975
Te3135  Te  0.443552  0.256950  0.500000
Mo1568  Mo  0.447339  0.250371  0.482988
Te3136  Te  0.443552  0.256950  0.465975
Te3137  Te  0.454915  0.210897  0.500000
Mo1569  Mo  0.458703  0.217476  0.482988
Te3138  Te  0.454915  0.210897  0.465975
Te3139  Te  0.466279  0.217476  0.500000
Mo1570  Mo  0.470067  0.210897  0.482988
Te3140  Te  0.466279  0.217476  0.465975
Te3141  Te  0.454915  0.224055  0.500000
Mo1571  Mo  0.458703  0.230634  0.482988
Te3142  Te  0.454915  0.224055  0.465975
Te3143  Te  0.466279  0.230634  0.500000
Mo1572  Mo  0.470067  0.224055  0.482988
Te3144  Te  0.466279  0.230634  0.465975
Te3145  Te  0.454915  0.237213  0.500000
Mo1573  Mo  0.458703  0.243792  0.482988
Te3146  Te  0.454915  0.237213  0.465975
Te3147  Te  0.466279  0.243792  0.500000
Mo1574  Mo  0.470067  0.237213  0.482988
Te3148  Te  0.466279  0.243792  0.465975
Te3149  Te  0.454915  0.250371  0.500000
Mo1575  Mo  0.458703  0.256950  0.482988
Te3150  Te  0.454915  0.250371  0.465975
Te3151  Te  0.466279  0.256950  0.500000
Mo1576  Mo  0.470067  0.250371  0.482988
Te3152  Te  0.466279  0.256950  0.465975
Te3153  Te  0.477642  0.210897  0.500000
Mo1577  Mo  0.481430  0.217476  0.482988
Te3154  Te  0.477642  0.210897  0.465975
Te3155  Te  0.489006  0.217476  0.500000
Mo1578  Mo  0.492794  0.210897  0.482988
Te3156  Te  0.489006  0.217476  0.465975
Te3157  Te  0.477642  0.224055  0.500000
Mo1579  Mo  0.481430  0.230634  0.482988
Te3158  Te  0.477642  0.224055  0.465975
Te3159  Te  0.489006  0.230634  0.500000
Mo1580  Mo  0.492794  0.224055  0.482988
Te3160  Te  0.489006  0.230634  0.465975
Te3161  Te  0.477642  0.237213  0.500000
Mo1581  Mo  0.481430  0.243792  0.482988
Te3162  Te  0.477642  0.237213  0.465975
Te3163  Te  0.489006  0.243792  0.500000
Mo1582  Mo  0.492794  0.237213  0.482988
Te3164  Te  0.489006  0.243792  0.465975
Te3165  Te  0.477642  0.250371  0.500000
Mo1583  Mo  0.481430  0.256950  0.482988
Te3166  Te  0.477642  0.250371  0.465975
Te3167  Te  0.489006  0.256950  0.500000
Mo1584  Mo  0.492794  0.250371  0.482988
Te3168  Te  0.489006  0.256950  0.465975
Te3169  Te  0.500370  0.210897  0.500000
Mo1585  Mo  0.504158  0.217476  0.482988
Te3170  Te  0.500370  0.210897  0.465975
Te3171  Te  0.511733  0.217476  0.500000
Mo1586  Mo  0.515521  0.210897  0.482988
Te3172  Te  0.511733  0.217476  0.465975
Te3173  Te  0.500370  0.224055  0.500000
Mo1587  Mo  0.504158  0.230634  0.482988
Te3174  Te  0.500370  0.224055  0.465975
Te3175  Te  0.511733  0.230634  0.500000
Mo1588  Mo  0.515521  0.224055  0.482988
Te3176  Te  0.511733  0.230634  0.465975
Te3177  Te  0.500370  0.237213  0.500000
Mo1589  Mo  0.504158  0.243792  0.482988
Te3178  Te  0.500370  0.237213  0.465975
Te3179  Te  0.511733  0.243792  0.500000
Mo1590  Mo  0.515521  0.237213  0.482988
Te3180  Te  0.511733  0.243792  0.465975
Te3181  Te  0.500370  0.250371  0.500000
Mo1591  Mo  0.504158  0.256950  0.482988
Te3182  Te  0.500370  0.250371  0.465975
Te3183  Te  0.511733  0.256950  0.500000
Mo1592  Mo  0.515521  0.250371  0.482988
Te3184  Te  0.511733  0.256950  0.465975
Te3185  Te  0.523097  0.210897  0.500000
Mo1593  Mo  0.526885  0.217476  0.482988
Te3186  Te  0.523097  0.210897  0.465975
Te3187  Te  0.534461  0.217476  0.500000
Mo1594  Mo  0.538249  0.210897  0.482988
Te3188  Te  0.534461  0.217476  0.465975
Te3189  Te  0.523097  0.224055  0.500000
Mo1595  Mo  0.526885  0.230634  0.482988
Te3190  Te  0.523097  0.224055  0.465975
Te3191  Te  0.534461  0.230634  0.500000
Mo1596  Mo  0.538249  0.224055  0.482988
Te3192  Te  0.534461  0.230634  0.465975
Te3193  Te  0.523097  0.237213  0.500000
Mo1597  Mo  0.526885  0.243792  0.482988
Te3194  Te  0.523097  0.237213  0.465975
Te3195  Te  0.534461  0.243792  0.500000
Mo1598  Mo  0.538249  0.237213  0.482988
Te3196  Te  0.534461  0.243792  0.465975
Te3197  Te  0.523097  0.250371  0.500000
Mo1599  Mo  0.526885  0.256950  0.482988
Te3198  Te  0.523097  0.250371  0.465975
Te3199  Te  0.534461  0.256950  0.500000
Mo1600  Mo  0.538249  0.250371  0.482988
Te3200  Te  0.534461  0.256950  0.465975
Te3201  Te  0.545824  0.210897  0.500000
Mo1601  Mo  0.549612  0.217476  0.482988
Te3202  Te  0.545824  0.210897  0.465975
Te3203  Te  0.557188  0.217476  0.500000
Mo1602  Mo  0.560976  0.210897  0.482988
Te3204  Te  0.557188  0.217476  0.465975
Te3205  Te  0.545824  0.224055  0.500000
Mo1603  Mo  0.549612  0.230634  0.482988
Te3206  Te  0.545824  0.224055  0.465975
Te3207  Te  0.557188  0.230634  0.500000
Mo1604  Mo  0.560976  0.224055  0.482988
Te3208  Te  0.557188  0.230634  0.465975
Te3209  Te  0.545824  0.237213  0.500000
Mo1605  Mo  0.549612  0.243792  0.482988
Te3210  Te  0.545824  0.237213  0.465975
Te3211  Te  0.557188  0.243792  0.500000
Mo1606  Mo  0.560976  0.237213  0.482988
Te3212  Te  0.557188  0.243792  0.465975
Te3213  Te  0.545824  0.250371  0.500000
Mo1607  Mo  0.549612  0.256950  0.482988
Te3214  Te  0.545824  0.250371  0.465975
Te3215  Te  0.557188  0.256950  0.500000
Mo1608  Mo  0.560976  0.250371  0.482988
Te3216  Te  0.557188  0.256950  0.465975
Te3217  Te  0.568552  0.210897  0.500000
Mo1609  Mo  0.572339  0.217476  0.482988
Te3218  Te  0.568552  0.210897  0.465975
Te3219  Te  0.579915  0.217476  0.500000
Mo1610  Mo  0.583703  0.210897  0.482988
Te3220  Te  0.579915  0.217476  0.465975
Te3221  Te  0.568552  0.224055  0.500000
Mo1611  Mo  0.572339  0.230634  0.482988
Te3222  Te  0.568552  0.224055  0.465975
Te3223  Te  0.579915  0.230634  0.500000
Mo1612  Mo  0.583703  0.224055  0.482988
Te3224  Te  0.579915  0.230634  0.465975
Te3225  Te  0.568552  0.237213  0.500000
Mo1613  Mo  0.572339  0.243792  0.482988
Te3226  Te  0.568552  0.237213  0.465975
Te3227  Te  0.579915  0.243792  0.500000
Mo1614  Mo  0.583703  0.237213  0.482988
Te3228  Te  0.579915  0.243792  0.465975
Te3229  Te  0.568552  0.250371  0.500000
Mo1615  Mo  0.572339  0.256950  0.482988
Te3230  Te  0.568552  0.250371  0.465975
Te3231  Te  0.579915  0.256950  0.500000
Mo1616  Mo  0.583703  0.250371  0.482988
Te3232  Te  0.579915  0.256950  0.465975
Te3233  Te  0.591279  0.210897  0.500000
Mo1617  Mo  0.595067  0.217476  0.482988
Te3234  Te  0.591279  0.210897  0.465975
Te3235  Te  0.602642  0.217476  0.500000
Mo1618  Mo  0.606430  0.210897  0.482988
Te3236  Te  0.602642  0.217476  0.465975
Te3237  Te  0.591279  0.224055  0.500000
Mo1619  Mo  0.595067  0.230634  0.482988
Te3238  Te  0.591279  0.224055  0.465975
Te3239  Te  0.602642  0.230634  0.500000
Mo1620  Mo  0.606430  0.224055  0.482988
Te3240  Te  0.602642  0.230634  0.465975
Te3241  Te  0.591279  0.237213  0.500000
Mo1621  Mo  0.595067  0.243792  0.482988
Te3242  Te  0.591279  0.237213  0.465975
Te3243  Te  0.602642  0.243792  0.500000
Mo1622  Mo  0.606430  0.237213  0.482988
Te3244  Te  0.602642  0.243792  0.465975
Te3245  Te  0.591279  0.250371  0.500000
Mo1623  Mo  0.595067  0.256950  0.482988
Te3246  Te  0.591279  0.250371  0.465975
Te3247  Te  0.602642  0.256950  0.500000
Mo1624  Mo  0.606430  0.250371  0.482988
Te3248  Te  0.602642  0.256950  0.465975
Te3249  Te  0.614006  0.210897  0.500000
Mo1625  Mo  0.617794  0.217476  0.482988
Te3250  Te  0.614006  0.210897  0.465975
Te3251  Te  0.625370  0.217476  0.500000
Mo1626  Mo  0.629158  0.210897  0.482988
Te3252  Te  0.625370  0.217476  0.465975
Te3253  Te  0.614006  0.224055  0.500000
Mo1627  Mo  0.617794  0.230634  0.482988
Te3254  Te  0.614006  0.224055  0.465975
Te3255  Te  0.625370  0.230634  0.500000
Mo1628  Mo  0.629158  0.224055  0.482988
Te3256  Te  0.625370  0.230634  0.465975
Te3257  Te  0.614006  0.237213  0.500000
Mo1629  Mo  0.617794  0.243792  0.482988
Te3258  Te  0.614006  0.237213  0.465975
Te3259  Te  0.625370  0.243792  0.500000
Mo1630  Mo  0.629158  0.237213  0.482988
Te3260  Te  0.625370  0.243792  0.465975
Te3261  Te  0.614006  0.250371  0.500000
Mo1631  Mo  0.617794  0.256950  0.482988
Te3262  Te  0.614006  0.250371  0.465975
Te3263  Te  0.625370  0.256950  0.500000
Mo1632  Mo  0.629158  0.250371  0.482988
Te3264  Te  0.625370  0.256950  0.465975
Te3265  Te  0.636733  0.210897  0.500000
Mo1633  Mo  0.640521  0.217476  0.482988
Te3266  Te  0.636733  0.210897  0.465975
Te3267  Te  0.648097  0.217476  0.500000
Mo1634  Mo  0.651885  0.210897  0.482988
Te3268  Te  0.648097  0.217476  0.465975
Te3269  Te  0.636733  0.224055  0.500000
Mo1635  Mo  0.640521  0.230634  0.482988
Te3270  Te  0.636733  0.224055  0.465975
Te3271  Te  0.648097  0.230634  0.500000
Mo1636  Mo  0.651885  0.224055  0.482988
Te3272  Te  0.648097  0.230634  0.465975
Te3273  Te  0.636733  0.237213  0.500000
Mo1637  Mo  0.640521  0.243792  0.482988
Te3274  Te  0.636733  0.237213  0.465975
Te3275  Te  0.648097  0.243792  0.500000
Mo1638  Mo  0.651885  0.237213  0.482988
Te3276  Te  0.648097  0.243792  0.465975
Te3277  Te  0.636733  0.250371  0.500000
Mo1639  Mo  0.640521  0.256950  0.482988
Te3278  Te  0.636733  0.250371  0.465975
Te3279  Te  0.648097  0.256950  0.500000
Mo1640  Mo  0.651885  0.250371  0.482988
Te3280  Te  0.648097  0.256950  0.465975
Te3281  Te  0.659461  0.210897  0.500000
Mo1641  Mo  0.663248  0.217476  0.482988
Te3282  Te  0.659461  0.210897  0.465975
Te3283  Te  0.670824  0.217476  0.500000
Mo1642  Mo  0.674612  0.210897  0.482988
Te3284  Te  0.670824  0.217476  0.465975
Te3285  Te  0.659461  0.224055  0.500000
Mo1643  Mo  0.663248  0.230634  0.482988
Te3286  Te  0.659461  0.224055  0.465975
Te3287  Te  0.670824  0.230634  0.500000
Mo1644  Mo  0.674612  0.224055  0.482988
Te3288  Te  0.670824  0.230634  0.465975
Te3289  Te  0.659461  0.237213  0.500000
Mo1645  Mo  0.663248  0.243792  0.482988
Te3290  Te  0.659461  0.237213  0.465975
Te3291  Te  0.670824  0.243792  0.500000
Mo1646  Mo  0.674612  0.237213  0.482988
Te3292  Te  0.670824  0.243792  0.465975
Te3293  Te  0.659461  0.250371  0.500000
Mo1647  Mo  0.663248  0.256950  0.482988
Te3294  Te  0.659461  0.250371  0.465975
Te3295  Te  0.670824  0.256950  0.500000
Mo1648  Mo  0.674612  0.250371  0.482988
Te3296  Te  0.670824  0.256950  0.465975
Te3297  Te  0.682188  0.210897  0.500000
Mo1649  Mo  0.685976  0.217476  0.482988
Te3298  Te  0.682188  0.210897  0.465975
Te3299  Te  0.693551  0.217476  0.500000
Mo1650  Mo  0.697339  0.210897  0.482988
Te3300  Te  0.693551  0.217476  0.465975
Te3301  Te  0.682188  0.224055  0.500000
Mo1651  Mo  0.685976  0.230634  0.482988
Te3302  Te  0.682188  0.224055  0.465975
Te3303  Te  0.693551  0.230634  0.500000
Mo1652  Mo  0.697339  0.224055  0.482988
Te3304  Te  0.693551  0.230634  0.465975
Te3305  Te  0.682188  0.237213  0.500000
Mo1653  Mo  0.685976  0.243792  0.482988
Te3306  Te  0.682188  0.237213  0.465975
Te3307  Te  0.693551  0.243792  0.500000
Mo1654  Mo  0.697339  0.237213  0.482988
Te3308  Te  0.693551  0.243792  0.465975
Te3309  Te  0.682188  0.250371  0.500000
Mo1655  Mo  0.685976  0.256950  0.482988
Te3310  Te  0.682188  0.250371  0.465975
Te3311  Te  0.693551  0.256950  0.500000
Mo1656  Mo  0.697339  0.250371  0.482988
Te3312  Te  0.693551  0.256950  0.465975
Te3313  Te  0.704915  0.210897  0.500000
Mo1657  Mo  0.708703  0.217476  0.482988
Te3314  Te  0.704915  0.210897  0.465975
Te3315  Te  0.716279  0.217476  0.500000
Mo1658  Mo  0.720067  0.210897  0.482988
Te3316  Te  0.716279  0.217476  0.465975
Te3317  Te  0.704915  0.224055  0.500000
Mo1659  Mo  0.708703  0.230634  0.482988
Te3318  Te  0.704915  0.224055  0.465975
Te3319  Te  0.716279  0.230634  0.500000
Mo1660  Mo  0.720067  0.224055  0.482988
Te3320  Te  0.716279  0.230634  0.465975
Te3321  Te  0.704915  0.237213  0.500000
Mo1661  Mo  0.708703  0.243792  0.482988
Te3322  Te  0.704915  0.237213  0.465975
Te3323  Te  0.716279  0.243792  0.500000
Mo1662  Mo  0.720067  0.237213  0.482988
Te3324  Te  0.716279  0.243792  0.465975
Te3325  Te  0.704915  0.250371  0.500000
Mo1663  Mo  0.708703  0.256950  0.482988
Te3326  Te  0.704915  0.250371  0.465975
Te3327  Te  0.716279  0.256950  0.500000
Mo1664  Mo  0.720067  0.250371  0.482988
Te3328  Te  0.716279  0.256950  0.465975
Te3329  Te  0.727642  0.210897  0.500000
Mo1665  Mo  0.731430  0.217476  0.482988
Te3330  Te  0.727642  0.210897  0.465975
Te3331  Te  0.739006  0.217476  0.500000
Mo1666  Mo  0.742794  0.210897  0.482988
Te3332  Te  0.739006  0.217476  0.465975
Te3333  Te  0.727642  0.224055  0.500000
Mo1667  Mo  0.731430  0.230634  0.482988
Te3334  Te  0.727642  0.224055  0.465975
Te3335  Te  0.739006  0.230634  0.500000
Mo1668  Mo  0.742794  0.224055  0.482988
Te3336  Te  0.739006  0.230634  0.465975
Te3337  Te  0.727642  0.237213  0.500000
Mo1669  Mo  0.731430  0.243792  0.482988
Te3338  Te  0.727642  0.237213  0.465975
Te3339  Te  0.739006  0.243792  0.500000
Mo1670  Mo  0.742794  0.237213  0.482988
Te3340  Te  0.739006  0.243792  0.465975
Te3341  Te  0.727642  0.250371  0.500000
Mo1671  Mo  0.731430  0.256950  0.482988
Te3342  Te  0.727642  0.250371  0.465975
Te3343  Te  0.739006  0.256950  0.500000
Mo1672  Mo  0.742794  0.250371  0.482988
Te3344  Te  0.739006  0.256950  0.465975
Te3345  Te  0.750370  0.210897  0.500000
Mo1673  Mo  0.754158  0.217476  0.482988
Te3346  Te  0.750370  0.210897  0.465975
Te3347  Te  0.761733  0.217476  0.500000
Mo1674  Mo  0.765521  0.210897  0.482988
Te3348  Te  0.761733  0.217476  0.465975
Te3349  Te  0.750370  0.224055  0.500000
Mo1675  Mo  0.754158  0.230634  0.482988
Te3350  Te  0.750370  0.224055  0.465975
Te3351  Te  0.761733  0.230634  0.500000
Mo1676  Mo  0.765521  0.224055  0.482988
Te3352  Te  0.761733  0.230634  0.465975
Te3353  Te  0.750370  0.237213  0.500000
Mo1677  Mo  0.754158  0.243792  0.482988
Te3354  Te  0.750370  0.237213  0.465975
Te3355  Te  0.761733  0.243792  0.500000
Mo1678  Mo  0.765521  0.237213  0.482988
Te3356  Te  0.761733  0.243792  0.465975
Te3357  Te  0.750370  0.250371  0.500000
Mo1679  Mo  0.754158  0.256950  0.482988
Te3358  Te  0.750370  0.250371  0.465975
Te3359  Te  0.761733  0.256950  0.500000
Mo1680  Mo  0.765521  0.250371  0.482988
Te3360  Te  0.761733  0.256950  0.465975
Te3361  Te  0.773097  0.210897  0.500000
Mo1681  Mo  0.776885  0.217476  0.482988
Te3362  Te  0.773097  0.210897  0.465975
Te3363  Te  0.784461  0.217476  0.500000
Mo1682  Mo  0.788248  0.210897  0.482988
Te3364  Te  0.784461  0.217476  0.465975
Te3365  Te  0.773097  0.224055  0.500000
Mo1683  Mo  0.776885  0.230634  0.482988
Te3366  Te  0.773097  0.224055  0.465975
Te3367  Te  0.784461  0.230634  0.500000
Mo1684  Mo  0.788248  0.224055  0.482988
Te3368  Te  0.784461  0.230634  0.465975
Te3369  Te  0.773097  0.237213  0.500000
Mo1685  Mo  0.776885  0.243792  0.482988
Te3370  Te  0.773097  0.237213  0.465975
Te3371  Te  0.784461  0.243792  0.500000
Mo1686  Mo  0.788248  0.237213  0.482988
Te3372  Te  0.784461  0.243792  0.465975
Te3373  Te  0.773097  0.250371  0.500000
Mo1687  Mo  0.776885  0.256950  0.482988
Te3374  Te  0.773097  0.250371  0.465975
Te3375  Te  0.784461  0.256950  0.500000
Mo1688  Mo  0.788248  0.250371  0.482988
Te3376  Te  0.784461  0.256950  0.465975
Te3377  Te  0.795824  0.210897  0.500000
Mo1689  Mo  0.799612  0.217476  0.482988
Te3378  Te  0.795824  0.210897  0.465975
Te3379  Te  0.807188  0.217476  0.500000
Mo1690  Mo  0.810976  0.210897  0.482988
Te3380  Te  0.807188  0.217476  0.465975
Te3381  Te  0.795824  0.224055  0.500000
Mo1691  Mo  0.799612  0.230634  0.482988
Te3382  Te  0.795824  0.224055  0.465975
Te3383  Te  0.807188  0.230634  0.500000
Mo1692  Mo  0.810976  0.224055  0.482988
Te3384  Te  0.807188  0.230634  0.465975
Te3385  Te  0.795824  0.237213  0.500000
Mo1693  Mo  0.799612  0.243792  0.482988
Te3386  Te  0.795824  0.237213  0.465975
Te3387  Te  0.807188  0.243792  0.500000
Mo1694  Mo  0.810976  0.237213  0.482988
Te3388  Te  0.807188  0.243792  0.465975
Te3389  Te  0.795824  0.250371  0.500000
Mo1695  Mo  0.799612  0.256950  0.482988
Te3390  Te  0.795824  0.250371  0.465975
Te3391  Te  0.807188  0.256950  0.500000
Mo1696  Mo  0.810976  0.250371  0.482988
Te3392  Te  0.807188  0.256950  0.465975
Te3393  Te  0.818551  0.210897  0.500000
Mo1697  Mo  0.822339  0.217476  0.482988
Te3394  Te  0.818551  0.210897  0.465975
Te3395  Te  0.829915  0.217476  0.500000
Mo1698  Mo  0.833703  0.210897  0.482988
Te3396  Te  0.829915  0.217476  0.465975
Te3397  Te  0.818551  0.224055  0.500000
Mo1699  Mo  0.822339  0.230634  0.482988
Te3398  Te  0.818551  0.224055  0.465975
Te3399  Te  0.829915  0.230634  0.500000
Mo1700  Mo  0.833703  0.224055  0.482988
Te3400  Te  0.829915  0.230634  0.465975
Te3401  Te  0.818551  0.237213  0.500000
Mo1701  Mo  0.822339  0.243792  0.482988
Te3402  Te  0.818551  0.237213  0.465975
Te3403  Te  0.829915  0.243792  0.500000
Mo1702  Mo  0.833703  0.237213  0.482988
Te3404  Te  0.829915  0.243792  0.465975
Te3405  Te  0.818551  0.250371  0.500000
Mo1703  Mo  0.822339  0.256950  0.482988
Te3406  Te  0.818551  0.250371  0.465975
Te3407  Te  0.829915  0.256950  0.500000
Mo1704  Mo  0.833703  0.250371  0.482988
Te3408  Te  0.829915  0.256950  0.465975
Te3409  Te  0.841279  0.210897  0.500000
Mo1705  Mo  0.845067  0.217476  0.482988
Te3410  Te  0.841279  0.210897  0.465975
Te3411  Te  0.852642  0.217476  0.500000
Mo1706  Mo  0.856430  0.210897  0.482988
Te3412  Te  0.852642  0.217476  0.465975
Te3413  Te  0.841279  0.224055  0.500000
Mo1707  Mo  0.845067  0.230634  0.482988
Te3414  Te  0.841279  0.224055  0.465975
Te3415  Te  0.852642  0.230634  0.500000
Mo1708  Mo  0.856430  0.224055  0.482988
Te3416  Te  0.852642  0.230634  0.465975
Te3417  Te  0.841279  0.237213  0.500000
Mo1709  Mo  0.845067  0.243792  0.482988
Te3418  Te  0.841279  0.237213  0.465975
Te3419  Te  0.852642  0.243792  0.500000
Mo1710  Mo  0.856430  0.237213  0.482988
Te3420  Te  0.852642  0.243792  0.465975
Te3421  Te  0.841279  0.250371  0.500000
Mo1711  Mo  0.845067  0.256950  0.482988
Te3422  Te  0.841279  0.250371  0.465975
Te3423  Te  0.852642  0.256950  0.500000
Mo1712  Mo  0.856430  0.250371  0.482988
Te3424  Te  0.852642  0.256950  0.465975
Te3425  Te  0.864006  0.210897  0.500000
Mo1713  Mo  0.867794  0.217476  0.482988
Te3426  Te  0.864006  0.210897  0.465975
Te3427  Te  0.875370  0.217476  0.500000
Mo1714  Mo  0.879158  0.210897  0.482988
Te3428  Te  0.875370  0.217476  0.465975
Te3429  Te  0.864006  0.224055  0.500000
Mo1715  Mo  0.867794  0.230634  0.482988
Te3430  Te  0.864006  0.224055  0.465975
Te3431  Te  0.875370  0.230634  0.500000
Mo1716  Mo  0.879158  0.224055  0.482988
Te3432  Te  0.875370  0.230634  0.465975
Te3433  Te  0.864006  0.237213  0.500000
Mo1717  Mo  0.867794  0.243792  0.482988
Te3434  Te  0.864006  0.237213  0.465975
Te3435  Te  0.875370  0.243792  0.500000
Mo1718  Mo  0.879158  0.237213  0.482988
Te3436  Te  0.875370  0.243792  0.465975
Te3437  Te  0.864006  0.250371  0.500000
Mo1719  Mo  0.867794  0.256950  0.482988
Te3438  Te  0.864006  0.250371  0.465975
Te3439  Te  0.875370  0.256950  0.500000
Mo1720  Mo  0.879158  0.250371  0.482988
Te3440  Te  0.875370  0.256950  0.465975
Te3441  Te  0.886733  0.210897  0.500000
Mo1721  Mo  0.890521  0.217476  0.482988
Te3442  Te  0.886733  0.210897  0.465975
Te3443  Te  0.898097  0.217476  0.500000
Mo1722  Mo  0.901885  0.210897  0.482988
Te3444  Te  0.898097  0.217476  0.465975
Te3445  Te  0.886733  0.224055  0.500000
Mo1723  Mo  0.890521  0.230634  0.482988
Te3446  Te  0.886733  0.224055  0.465975
Te3447  Te  0.898097  0.230634  0.500000
Mo1724  Mo  0.901885  0.224055  0.482988
Te3448  Te  0.898097  0.230634  0.465975
Te3449  Te  0.886733  0.237213  0.500000
Mo1725  Mo  0.890521  0.243792  0.482988
Te3450  Te  0.886733  0.237213  0.465975
Te3451  Te  0.898097  0.243792  0.500000
Mo1726  Mo  0.901885  0.237213  0.482988
Te3452  Te  0.898097  0.243792  0.465975
Te3453  Te  0.886733  0.250371  0.500000
Mo1727  Mo  0.890521  0.256950  0.482988
Te3454  Te  0.886733  0.250371  0.465975
Te3455  Te  0.898097  0.256950  0.500000
Mo1728  Mo  0.901885  0.250371  0.482988
Te3456  Te  0.898097  0.256950  0.465975
Te3457  Te  0.909461  0.210897  0.500000
Mo1729  Mo  0.913248  0.217476  0.482988
Te3458  Te  0.909461  0.210897  0.465975
Te3459  Te  0.920824  0.217476  0.500000
Mo1730  Mo  0.924612  0.210897  0.482988
Te3460  Te  0.920824  0.217476  0.465975
Te3461  Te  0.909461  0.224055  0.500000
Mo1731  Mo  0.913248  0.230634  0.482988
Te3462  Te  0.909461  0.224055  0.465975
Te3463  Te  0.920824  0.230634  0.500000
Mo1732  Mo  0.924612  0.224055  0.482988
Te3464  Te  0.920824  0.230634  0.465975
Te3465  Te  0.909461  0.237213  0.500000
Mo1733  Mo  0.913248  0.243792  0.482988
Te3466  Te  0.909461  0.237213  0.465975
Te3467  Te  0.920824  0.243792  0.500000
Mo1734  Mo  0.924612  0.237213  0.482988
Te3468  Te  0.920824  0.243792  0.465975
Te3469  Te  0.909461  0.250371  0.500000
Mo1735  Mo  0.913248  0.256950  0.482988
Te3470  Te  0.909461  0.250371  0.465975
Te3471  Te  0.920824  0.256950  0.500000
Mo1736  Mo  0.924612  0.250371  0.482988
Te3472  Te  0.920824  0.256950  0.465975
Te3473  Te  0.932188  0.210897  0.500000
Mo1737  Mo  0.935976  0.217476  0.482988
Te3474  Te  0.932188  0.210897  0.465975
Te3475  Te  0.943552  0.217476  0.500000
Mo1738  Mo  0.947339  0.210897  0.482988
Te3476  Te  0.943552  0.217476  0.465975
Te3477  Te  0.932188  0.224055  0.500000
Mo1739  Mo  0.935976  0.230634  0.482988
Te3478  Te  0.932188  0.224055  0.465975
Te3479  Te  0.943552  0.230634  0.500000
Mo1740  Mo  0.947339  0.224055  0.482988
Te3480  Te  0.943552  0.230634  0.465975
Te3481  Te  0.932188  0.237213  0.500000
Mo1741  Mo  0.935976  0.243792  0.482988
Te3482  Te  0.932188  0.237213  0.465975
Te3483  Te  0.943552  0.243792  0.500000
Mo1742  Mo  0.947339  0.237213  0.482988
Te3484  Te  0.943552  0.243792  0.465975
Te3485  Te  0.932188  0.250371  0.500000
Mo1743  Mo  0.935976  0.256950  0.482988
Te3486  Te  0.932188  0.250371  0.465975
Te3487  Te  0.943552  0.256950  0.500000
Mo1744  Mo  0.947339  0.250371  0.482988
Te3488  Te  0.943552  0.256950  0.465975
Te3489  Te  0.954915  0.210897  0.500000
Mo1745  Mo  0.958703  0.217476  0.482988
Te3490  Te  0.954915  0.210897  0.465975
Te3491  Te  0.966279  0.217476  0.500000
Mo1746  Mo  0.970067  0.210897  0.482988
Te3492  Te  0.966279  0.217476  0.465975
Te3493  Te  0.954915  0.224055  0.500000
Mo1747  Mo  0.958703  0.230634  0.482988
Te3494  Te  0.954915  0.224055  0.465975
Te3495  Te  0.966279  0.230634  0.500000
Mo1748  Mo  0.970067  0.224055  0.482988
Te3496  Te  0.966279  0.230634  0.465975
Te3497  Te  0.954915  0.237213  0.500000
Mo1749  Mo  0.958703  0.243792  0.482988
Te3498  Te  0.954915  0.237213  0.465975
Te3499  Te  0.966279  0.243792  0.500000
Mo1750  Mo  0.970067  0.237213  0.482988
Te3500  Te  0.966279  0.243792  0.465975
Te3501  Te  0.954915  0.250371  0.500000
Mo1751  Mo  0.958703  0.256950  0.482988
Te3502  Te  0.954915  0.250371  0.465975
Te3503  Te  0.966279  0.256950  0.500000
Mo1752  Mo  0.970067  0.250371  0.482988
Te3504  Te  0.966279  0.256950  0.465975
Te3505  Te  0.977642  0.210897  0.500000
Mo1753  Mo  0.981430  0.217476  0.482988
Te3506  Te  0.977642  0.210897  0.465975
Te3507  Te  0.989006  0.217476  0.500000
Mo1754  Mo  0.992794  0.210897  0.482988
Te3508  Te  0.989006  0.217476  0.465975
Te3509  Te  0.977642  0.224055  0.500000
Mo1755  Mo  0.981430  0.230634  0.482988
Te3510  Te  0.977642  0.224055  0.465975
Te3511  Te  0.989006  0.230634  0.500000
Mo1756  Mo  0.992794  0.224055  0.482988
Te3512  Te  0.989006  0.230634  0.465975
Te3513  Te  0.977642  0.237213  0.500000
Mo1757  Mo  0.981430  0.243792  0.482988
Te3514  Te  0.977642  0.237213  0.465975
Te3515  Te  0.989006  0.243792  0.500000
Mo1758  Mo  0.992794  0.237213  0.482988
Te3516  Te  0.989006  0.243792  0.465975
Te3517  Te  0.977642  0.250371  0.500000
Mo1759  Mo  0.981430  0.256950  0.482988
Te3518  Te  0.977642  0.250371  0.465975
Te3519  Te  0.989006  0.256950  0.500000
Mo1760  Mo  0.992794  0.250371  0.482988
Te3520  Te  0.989006  0.256950  0.465975
Te3521  Te  0.000370  0.263529  0.500000
Mo1761  Mo  0.004158  0.270107  0.482988
Te3522  Te  0.000370  0.263529  0.465975
Te3523  Te  0.011733  0.270107  0.500000
Mo1762  Mo  0.015521  0.263529  0.482988
Te3524  Te  0.011733  0.270107  0.465975
Te3525  Te  0.000370  0.276686  0.500000
Mo1763  Mo  0.004158  0.283265  0.482988
Te3526  Te  0.000370  0.276686  0.465975
Te3527  Te  0.011733  0.283265  0.500000
Mo1764  Mo  0.015521  0.276686  0.482988
Te3528  Te  0.011733  0.283265  0.465975
Te3529  Te  0.000370  0.289844  0.500000
Mo1765  Mo  0.004158  0.296423  0.482988
Te3530  Te  0.000370  0.289844  0.465975
Te3531  Te  0.011733  0.296423  0.500000
Mo1766  Mo  0.015521  0.289844  0.482988
Te3532  Te  0.011733  0.296423  0.465975
Te3533  Te  0.000370  0.303002  0.500000
Mo1767  Mo  0.004158  0.309581  0.482988
Te3534  Te  0.000370  0.303002  0.465975
Te3535  Te  0.011733  0.309581  0.500000
Mo1768  Mo  0.015521  0.303002  0.482988
Te3536  Te  0.011733  0.309581  0.465975
Te3537  Te  0.023097  0.263529  0.500000
Mo1769  Mo  0.026885  0.270107  0.482988
Te3538  Te  0.023097  0.263529  0.465975
Te3539  Te  0.034461  0.270107  0.500000
Mo1770  Mo  0.038249  0.263529  0.482988
Te3540  Te  0.034461  0.270107  0.465975
Te3541  Te  0.023097  0.276686  0.500000
Mo1771  Mo  0.026885  0.283265  0.482988
Te3542  Te  0.023097  0.276686  0.465975
Te3543  Te  0.034461  0.283265  0.500000
Mo1772  Mo  0.038249  0.276686  0.482988
Te3544  Te  0.034461  0.283265  0.465975
Te3545  Te  0.023097  0.289844  0.500000
Mo1773  Mo  0.026885  0.296423  0.482988
Te3546  Te  0.023097  0.289844  0.465975
Te3547  Te  0.034461  0.296423  0.500000
Mo1774  Mo  0.038249  0.289844  0.482988
Te3548  Te  0.034461  0.296423  0.465975
Te3549  Te  0.023097  0.303002  0.500000
Mo1775  Mo  0.026885  0.309581  0.482988
Te3550  Te  0.023097  0.303002  0.465975
Te3551  Te  0.034461  0.309581  0.500000
Mo1776  Mo  0.038249  0.303002  0.482988
Te3552  Te  0.034461  0.309581  0.465975
Te3553  Te  0.045824  0.263529  0.500000
Mo1777  Mo  0.049612  0.270107  0.482988
Te3554  Te  0.045824  0.263529  0.465975
Te3555  Te  0.057188  0.270107  0.500000
Mo1778  Mo  0.060976  0.263529  0.482988
Te3556  Te  0.057188  0.270107  0.465975
Te3557  Te  0.045824  0.276686  0.500000
Mo1779  Mo  0.049612  0.283265  0.482988
Te3558  Te  0.045824  0.276686  0.465975
Te3559  Te  0.057188  0.283265  0.500000
Mo1780  Mo  0.060976  0.276686  0.482988
Te3560  Te  0.057188  0.283265  0.465975
Te3561  Te  0.045824  0.289844  0.500000
Mo1781  Mo  0.049612  0.296423  0.482988
Te3562  Te  0.045824  0.289844  0.465975
Te3563  Te  0.057188  0.296423  0.500000
Mo1782  Mo  0.060976  0.289844  0.482988
Te3564  Te  0.057188  0.296423  0.465975
Te3565  Te  0.045824  0.303002  0.500000
Mo1783  Mo  0.049612  0.309581  0.482988
Te3566  Te  0.045824  0.303002  0.465975
Te3567  Te  0.057188  0.309581  0.500000
Mo1784  Mo  0.060976  0.303002  0.482988
Te3568  Te  0.057188  0.309581  0.465975
Te3569  Te  0.068552  0.263529  0.500000
Mo1785  Mo  0.072339  0.270107  0.482988
Te3570  Te  0.068552  0.263529  0.465975
Te3571  Te  0.079915  0.270107  0.500000
Mo1786  Mo  0.083703  0.263529  0.482988
Te3572  Te  0.079915  0.270107  0.465975
Te3573  Te  0.068552  0.276686  0.500000
Mo1787  Mo  0.072339  0.283265  0.482988
Te3574  Te  0.068552  0.276686  0.465975
Te3575  Te  0.079915  0.283265  0.500000
Mo1788  Mo  0.083703  0.276686  0.482988
Te3576  Te  0.079915  0.283265  0.465975
Te3577  Te  0.068552  0.289844  0.500000
Mo1789  Mo  0.072339  0.296423  0.482988
Te3578  Te  0.068552  0.289844  0.465975
Te3579  Te  0.079915  0.296423  0.500000
Mo1790  Mo  0.083703  0.289844  0.482988
Te3580  Te  0.079915  0.296423  0.465975
Te3581  Te  0.068552  0.303002  0.500000
Mo1791  Mo  0.072339  0.309581  0.482988
Te3582  Te  0.068552  0.303002  0.465975
Te3583  Te  0.079915  0.309581  0.500000
Mo1792  Mo  0.083703  0.303002  0.482988
Te3584  Te  0.079915  0.309581  0.465975
Te3585  Te  0.091279  0.263529  0.500000
Mo1793  Mo  0.095067  0.270107  0.482988
Te3586  Te  0.091279  0.263529  0.465975
Te3587  Te  0.102642  0.270107  0.500000
Mo1794  Mo  0.106430  0.263529  0.482988
Te3588  Te  0.102642  0.270107  0.465975
Te3589  Te  0.091279  0.276686  0.500000
Mo1795  Mo  0.095067  0.283265  0.482988
Te3590  Te  0.091279  0.276686  0.465975
Te3591  Te  0.102642  0.283265  0.500000
Mo1796  Mo  0.106430  0.276686  0.482988
Te3592  Te  0.102642  0.283265  0.465975
Te3593  Te  0.091279  0.289844  0.500000
Mo1797  Mo  0.095067  0.296423  0.482988
Te3594  Te  0.091279  0.289844  0.465975
Te3595  Te  0.102642  0.296423  0.500000
Mo1798  Mo  0.106430  0.289844  0.482988
Te3596  Te  0.102642  0.296423  0.465975
Te3597  Te  0.091279  0.303002  0.500000
Mo1799  Mo  0.095067  0.309581  0.482988
Te3598  Te  0.091279  0.303002  0.465975
Te3599  Te  0.102642  0.309581  0.500000
Mo1800  Mo  0.106430  0.303002  0.482988
Te3600  Te  0.102642  0.309581  0.465975
Te3601  Te  0.114006  0.263529  0.500000
Mo1801  Mo  0.117794  0.270107  0.482988
Te3602  Te  0.114006  0.263529  0.465975
Te3603  Te  0.125370  0.270107  0.500000
Mo1802  Mo  0.129158  0.263529  0.482988
Te3604  Te  0.125370  0.270107  0.465975
Te3605  Te  0.114006  0.276686  0.500000
Mo1803  Mo  0.117794  0.283265  0.482988
Te3606  Te  0.114006  0.276686  0.465975
Te3607  Te  0.125370  0.283265  0.500000
Mo1804  Mo  0.129158  0.276686  0.482988
Te3608  Te  0.125370  0.283265  0.465975
Te3609  Te  0.114006  0.289844  0.500000
Mo1805  Mo  0.117794  0.296423  0.482988
Te3610  Te  0.114006  0.289844  0.465975
Te3611  Te  0.125370  0.296423  0.500000
Mo1806  Mo  0.129158  0.289844  0.482988
Te3612  Te  0.125370  0.296423  0.465975
Te3613  Te  0.114006  0.303002  0.500000
Mo1807  Mo  0.117794  0.309581  0.482988
Te3614  Te  0.114006  0.303002  0.465975
Te3615  Te  0.125370  0.309581  0.500000
Mo1808  Mo  0.129158  0.303002  0.482988
Te3616  Te  0.125370  0.309581  0.465975
Te3617  Te  0.136733  0.263529  0.500000
Mo1809  Mo  0.140521  0.270107  0.482988
Te3618  Te  0.136733  0.263529  0.465975
Te3619  Te  0.148097  0.270107  0.500000
Mo1810  Mo  0.151885  0.263529  0.482988
Te3620  Te  0.148097  0.270107  0.465975
Te3621  Te  0.136733  0.276686  0.500000
Mo1811  Mo  0.140521  0.283265  0.482988
Te3622  Te  0.136733  0.276686  0.465975
Te3623  Te  0.148097  0.283265  0.500000
Mo1812  Mo  0.151885  0.276686  0.482988
Te3624  Te  0.148097  0.283265  0.465975
Te3625  Te  0.136733  0.289844  0.500000
Mo1813  Mo  0.140521  0.296423  0.482988
Te3626  Te  0.136733  0.289844  0.465975
Te3627  Te  0.148097  0.296423  0.500000
Mo1814  Mo  0.151885  0.289844  0.482988
Te3628  Te  0.148097  0.296423  0.465975
Te3629  Te  0.136733  0.303002  0.500000
Mo1815  Mo  0.140521  0.309581  0.482988
Te3630  Te  0.136733  0.303002  0.465975
Te3631  Te  0.148097  0.309581  0.500000
Mo1816  Mo  0.151885  0.303002  0.482988
Te3632  Te  0.148097  0.309581  0.465975
Te3633  Te  0.159461  0.263529  0.500000
Mo1817  Mo  0.163248  0.270107  0.482988
Te3634  Te  0.159461  0.263529  0.465975
Te3635  Te  0.170824  0.270107  0.500000
Mo1818  Mo  0.174612  0.263529  0.482988
Te3636  Te  0.170824  0.270107  0.465975
Te3637  Te  0.159461  0.276686  0.500000
Mo1819  Mo  0.163248  0.283265  0.482988
Te3638  Te  0.159461  0.276686  0.465975
Te3639  Te  0.170824  0.283265  0.500000
Mo1820  Mo  0.174612  0.276686  0.482988
Te3640  Te  0.170824  0.283265  0.465975
Te3641  Te  0.159461  0.289844  0.500000
Mo1821  Mo  0.163248  0.296423  0.482988
Te3642  Te  0.159461  0.289844  0.465975
Te3643  Te  0.170824  0.296423  0.500000
Mo1822  Mo  0.174612  0.289844  0.482988
Te3644  Te  0.170824  0.296423  0.465975
Te3645  Te  0.159461  0.303002  0.500000
Mo1823  Mo  0.163248  0.309581  0.482988
Te3646  Te  0.159461  0.303002  0.465975
Te3647  Te  0.170824  0.309581  0.500000
Mo1824  Mo  0.174612  0.303002  0.482988
Te3648  Te  0.170824  0.309581  0.465975
Te3649  Te  0.182188  0.263529  0.500000
Mo1825  Mo  0.185976  0.270107  0.482988
Te3650  Te  0.182188  0.263529  0.465975
Te3651  Te  0.193551  0.270107  0.500000
Mo1826  Mo  0.197339  0.263529  0.482988
Te3652  Te  0.193551  0.270107  0.465975
Te3653  Te  0.182188  0.276686  0.500000
Mo1827  Mo  0.185976  0.283265  0.482988
Te3654  Te  0.182188  0.276686  0.465975
Te3655  Te  0.193551  0.283265  0.500000
Mo1828  Mo  0.197339  0.276686  0.482988
Te3656  Te  0.193551  0.283265  0.465975
Te3657  Te  0.182188  0.289844  0.500000
Mo1829  Mo  0.185976  0.296423  0.482988
Te3658  Te  0.182188  0.289844  0.465975
Te3659  Te  0.193551  0.296423  0.500000
Mo1830  Mo  0.197339  0.289844  0.482988
Te3660  Te  0.193551  0.296423  0.465975
Te3661  Te  0.182188  0.303002  0.500000
Mo1831  Mo  0.185976  0.309581  0.482988
Te3662  Te  0.182188  0.303002  0.465975
Te3663  Te  0.193551  0.309581  0.500000
Mo1832  Mo  0.197339  0.303002  0.482988
Te3664  Te  0.193551  0.309581  0.465975
Te3665  Te  0.204915  0.263529  0.500000
Mo1833  Mo  0.208703  0.270107  0.482988
Te3666  Te  0.204915  0.263529  0.465975
Te3667  Te  0.216279  0.270107  0.500000
Mo1834  Mo  0.220067  0.263529  0.482988
Te3668  Te  0.216279  0.270107  0.465975
Te3669  Te  0.204915  0.276686  0.500000
Mo1835  Mo  0.208703  0.283265  0.482988
Te3670  Te  0.204915  0.276686  0.465975
Te3671  Te  0.216279  0.283265  0.500000
Mo1836  Mo  0.220067  0.276686  0.482988
Te3672  Te  0.216279  0.283265  0.465975
Te3673  Te  0.204915  0.289844  0.500000
Mo1837  Mo  0.208703  0.296423  0.482988
Te3674  Te  0.204915  0.289844  0.465975
Te3675  Te  0.216279  0.296423  0.500000
Mo1838  Mo  0.220067  0.289844  0.482988
Te3676  Te  0.216279  0.296423  0.465975
Te3677  Te  0.204915  0.303002  0.500000
Mo1839  Mo  0.208703  0.309581  0.482988
Te3678  Te  0.204915  0.303002  0.465975
Te3679  Te  0.216279  0.309581  0.500000
Mo1840  Mo  0.220067  0.303002  0.482988
Te3680  Te  0.216279  0.309581  0.465975
Te3681  Te  0.227642  0.263529  0.500000
Mo1841  Mo  0.231430  0.270107  0.482988
Te3682  Te  0.227642  0.263529  0.465975
Te3683  Te  0.239006  0.270107  0.500000
Mo1842  Mo  0.242794  0.263529  0.482988
Te3684  Te  0.239006  0.270107  0.465975
Te3685  Te  0.227642  0.276686  0.500000
Mo1843  Mo  0.231430  0.283265  0.482988
Te3686  Te  0.227642  0.276686  0.465975
Te3687  Te  0.239006  0.283265  0.500000
Mo1844  Mo  0.242794  0.276686  0.482988
Te3688  Te  0.239006  0.283265  0.465975
Te3689  Te  0.227642  0.289844  0.500000
Mo1845  Mo  0.231430  0.296423  0.482988
Te3690  Te  0.227642  0.289844  0.465975
Te3691  Te  0.239006  0.296423  0.500000
Mo1846  Mo  0.242794  0.289844  0.482988
Te3692  Te  0.239006  0.296423  0.465975
Te3693  Te  0.227642  0.303002  0.500000
Mo1847  Mo  0.231430  0.309581  0.482988
Te3694  Te  0.227642  0.303002  0.465975
Te3695  Te  0.239006  0.309581  0.500000
Mo1848  Mo  0.242794  0.303002  0.482988
Te3696  Te  0.239006  0.309581  0.465975
Te3697  Te  0.250370  0.263529  0.500000
Mo1849  Mo  0.254158  0.270107  0.482988
Te3698  Te  0.250370  0.263529  0.465975
Te3699  Te  0.261733  0.270107  0.500000
Mo1850  Mo  0.265521  0.263529  0.482988
Te3700  Te  0.261733  0.270107  0.465975
Te3701  Te  0.250370  0.276686  0.500000
Mo1851  Mo  0.254158  0.283265  0.482988
Te3702  Te  0.250370  0.276686  0.465975
Te3703  Te  0.261733  0.283265  0.500000
Mo1852  Mo  0.265521  0.276686  0.482988
Te3704  Te  0.261733  0.283265  0.465975
Te3705  Te  0.250370  0.289844  0.500000
Mo1853  Mo  0.254158  0.296423  0.482988
Te3706  Te  0.250370  0.289844  0.465975
Te3707  Te  0.261733  0.296423  0.500000
Mo1854  Mo  0.265521  0.289844  0.482988
Te3708  Te  0.261733  0.296423  0.465975
Te3709  Te  0.250370  0.303002  0.500000
Mo1855  Mo  0.254158  0.309581  0.482988
Te3710  Te  0.250370  0.303002  0.465975
Te3711  Te  0.261733  0.309581  0.500000
Mo1856  Mo  0.265521  0.303002  0.482988
Te3712  Te  0.261733  0.309581  0.465975
Te3713  Te  0.273097  0.263529  0.500000
Mo1857  Mo  0.276885  0.270107  0.482988
Te3714  Te  0.273097  0.263529  0.465975
Te3715  Te  0.284461  0.270107  0.500000
Mo1858  Mo  0.288248  0.263529  0.482988
Te3716  Te  0.284461  0.270107  0.465975
Te3717  Te  0.273097  0.276686  0.500000
Mo1859  Mo  0.276885  0.283265  0.482988
Te3718  Te  0.273097  0.276686  0.465975
Te3719  Te  0.284461  0.283265  0.500000
Mo1860  Mo  0.288248  0.276686  0.482988
Te3720  Te  0.284461  0.283265  0.465975
Te3721  Te  0.273097  0.289844  0.500000
Mo1861  Mo  0.276885  0.296423  0.482988
Te3722  Te  0.273097  0.289844  0.465975
Te3723  Te  0.284461  0.296423  0.500000
Mo1862  Mo  0.288248  0.289844  0.482988
Te3724  Te  0.284461  0.296423  0.465975
Te3725  Te  0.273097  0.303002  0.500000
Mo1863  Mo  0.276885  0.309581  0.482988
Te3726  Te  0.273097  0.303002  0.465975
Te3727  Te  0.284461  0.309581  0.500000
Mo1864  Mo  0.288248  0.303002  0.482988
Te3728  Te  0.284461  0.309581  0.465975
Te3729  Te  0.295824  0.263529  0.500000
Mo1865  Mo  0.299612  0.270107  0.482988
Te3730  Te  0.295824  0.263529  0.465975
Te3731  Te  0.307188  0.270107  0.500000
Mo1866  Mo  0.310976  0.263529  0.482988
Te3732  Te  0.307188  0.270107  0.465975
Te3733  Te  0.295824  0.276686  0.500000
Mo1867  Mo  0.299612  0.283265  0.482988
Te3734  Te  0.295824  0.276686  0.465975
Te3735  Te  0.307188  0.283265  0.500000
Mo1868  Mo  0.310976  0.276686  0.482988
Te3736  Te  0.307188  0.283265  0.465975
Te3737  Te  0.295824  0.289844  0.500000
Mo1869  Mo  0.299612  0.296423  0.482988
Te3738  Te  0.295824  0.289844  0.465975
Te3739  Te  0.307188  0.296423  0.500000
Mo1870  Mo  0.310976  0.289844  0.482988
Te3740  Te  0.307188  0.296423  0.465975
Te3741  Te  0.295824  0.303002  0.500000
Mo1871  Mo  0.299612  0.309581  0.482988
Te3742  Te  0.295824  0.303002  0.465975
Te3743  Te  0.307188  0.309581  0.500000
Mo1872  Mo  0.310976  0.303002  0.482988
Te3744  Te  0.307188  0.309581  0.465975
Te3745  Te  0.318551  0.263529  0.500000
Mo1873  Mo  0.322339  0.270107  0.482988
Te3746  Te  0.318551  0.263529  0.465975
Te3747  Te  0.329915  0.270107  0.500000
Mo1874  Mo  0.333703  0.263529  0.482988
Te3748  Te  0.329915  0.270107  0.465975
Te3749  Te  0.318551  0.276686  0.500000
Mo1875  Mo  0.322339  0.283265  0.482988
Te3750  Te  0.318551  0.276686  0.465975
Te3751  Te  0.329915  0.283265  0.500000
Mo1876  Mo  0.333703  0.276686  0.482988
Te3752  Te  0.329915  0.283265  0.465975
Te3753  Te  0.318551  0.289844  0.500000
Mo1877  Mo  0.322339  0.296423  0.482988
Te3754  Te  0.318551  0.289844  0.465975
Te3755  Te  0.329915  0.296423  0.500000
Mo1878  Mo  0.333703  0.289844  0.482988
Te3756  Te  0.329915  0.296423  0.465975
Te3757  Te  0.318551  0.303002  0.500000
Mo1879  Mo  0.322339  0.309581  0.482988
Te3758  Te  0.318551  0.303002  0.465975
Te3759  Te  0.329915  0.309581  0.500000
Mo1880  Mo  0.333703  0.303002  0.482988
Te3760  Te  0.329915  0.309581  0.465975
Te3761  Te  0.341279  0.263529  0.500000
Mo1881  Mo  0.345067  0.270107  0.482988
Te3762  Te  0.341279  0.263529  0.465975
Te3763  Te  0.352642  0.270107  0.500000
Mo1882  Mo  0.356430  0.263529  0.482988
Te3764  Te  0.352642  0.270107  0.465975
Te3765  Te  0.341279  0.276686  0.500000
Mo1883  Mo  0.345067  0.283265  0.482988
Te3766  Te  0.341279  0.276686  0.465975
Te3767  Te  0.352642  0.283265  0.500000
Mo1884  Mo  0.356430  0.276686  0.482988
Te3768  Te  0.352642  0.283265  0.465975
Te3769  Te  0.341279  0.289844  0.500000
Mo1885  Mo  0.345067  0.296423  0.482988
Te3770  Te  0.341279  0.289844  0.465975
Te3771  Te  0.352642  0.296423  0.500000
Mo1886  Mo  0.356430  0.289844  0.482988
Te3772  Te  0.352642  0.296423  0.465975
Te3773  Te  0.341279  0.303002  0.500000
Mo1887  Mo  0.345067  0.309581  0.482988
Te3774  Te  0.341279  0.303002  0.465975
Te3775  Te  0.352642  0.309581  0.500000
Mo1888  Mo  0.356430  0.303002  0.482988
Te3776  Te  0.352642  0.309581  0.465975
Te3777  Te  0.364006  0.263529  0.500000
Mo1889  Mo  0.367794  0.270107  0.482988
Te3778  Te  0.364006  0.263529  0.465975
Te3779  Te  0.375370  0.270107  0.500000
Mo1890  Mo  0.379158  0.263529  0.482988
Te3780  Te  0.375370  0.270107  0.465975
Te3781  Te  0.364006  0.276686  0.500000
Mo1891  Mo  0.367794  0.283265  0.482988
Te3782  Te  0.364006  0.276686  0.465975
Te3783  Te  0.375370  0.283265  0.500000
Mo1892  Mo  0.379158  0.276686  0.482988
Te3784  Te  0.375370  0.283265  0.465975
Te3785  Te  0.364006  0.289844  0.500000
Mo1893  Mo  0.367794  0.296423  0.482988
Te3786  Te  0.364006  0.289844  0.465975
Te3787  Te  0.375370  0.296423  0.500000
Mo1894  Mo  0.379158  0.289844  0.482988
Te3788  Te  0.375370  0.296423  0.465975
Te3789  Te  0.364006  0.303002  0.500000
Mo1895  Mo  0.367794  0.309581  0.482988
Te3790  Te  0.364006  0.303002  0.465975
Te3791  Te  0.375370  0.309581  0.500000
Mo1896  Mo  0.379158  0.303002  0.482988
Te3792  Te  0.375370  0.309581  0.465975
Te3793  Te  0.386733  0.263529  0.500000
Mo1897  Mo  0.390521  0.270107  0.482988
Te3794  Te  0.386733  0.263529  0.465975
Te3795  Te  0.398097  0.270107  0.500000
Mo1898  Mo  0.401885  0.263529  0.482988
Te3796  Te  0.398097  0.270107  0.465975
Te3797  Te  0.386733  0.276686  0.500000
Mo1899  Mo  0.390521  0.283265  0.482988
Te3798  Te  0.386733  0.276686  0.465975
Te3799  Te  0.398097  0.283265  0.500000
Mo1900  Mo  0.401885  0.276686  0.482988
Te3800  Te  0.398097  0.283265  0.465975
Te3801  Te  0.386733  0.289844  0.500000
Mo1901  Mo  0.390521  0.296423  0.482988
Te3802  Te  0.386733  0.289844  0.465975
Te3803  Te  0.398097  0.296423  0.500000
Mo1902  Mo  0.401885  0.289844  0.482988
Te3804  Te  0.398097  0.296423  0.465975
Te3805  Te  0.386733  0.303002  0.500000
Mo1903  Mo  0.390521  0.309581  0.482988
Te3806  Te  0.386733  0.303002  0.465975
Te3807  Te  0.398097  0.309581  0.500000
Mo1904  Mo  0.401885  0.303002  0.482988
Te3808  Te  0.398097  0.309581  0.465975
Te3809  Te  0.409461  0.263529  0.500000
Mo1905  Mo  0.413248  0.270107  0.482988
Te3810  Te  0.409461  0.263529  0.465975
Te3811  Te  0.420824  0.270107  0.500000
Mo1906  Mo  0.424612  0.263529  0.482988
Te3812  Te  0.420824  0.270107  0.465975
Te3813  Te  0.409461  0.276686  0.500000
Mo1907  Mo  0.413248  0.283265  0.482988
Te3814  Te  0.409461  0.276686  0.465975
Te3815  Te  0.420824  0.283265  0.500000
Mo1908  Mo  0.424612  0.276686  0.482988
Te3816  Te  0.420824  0.283265  0.465975
Te3817  Te  0.409461  0.289844  0.500000
Mo1909  Mo  0.413248  0.296423  0.482988
Te3818  Te  0.409461  0.289844  0.465975
Te3819  Te  0.420824  0.296423  0.500000
Mo1910  Mo  0.424612  0.289844  0.482988
Te3820  Te  0.420824  0.296423  0.465975
Te3821  Te  0.409461  0.303002  0.500000
Mo1911  Mo  0.413248  0.309581  0.482988
Te3822  Te  0.409461  0.303002  0.465975
Te3823  Te  0.420824  0.309581  0.500000
Mo1912  Mo  0.424612  0.303002  0.482988
Te3824  Te  0.420824  0.309581  0.465975
Te3825  Te  0.432188  0.263529  0.500000
Mo1913  Mo  0.435976  0.270107  0.482988
Te3826  Te  0.432188  0.263529  0.465975
Te3827  Te  0.443552  0.270107  0.500000
Mo1914  Mo  0.447339  0.263529  0.482988
Te3828  Te  0.443552  0.270107  0.465975
Te3829  Te  0.432188  0.276686  0.500000
Mo1915  Mo  0.435976  0.283265  0.482988
Te3830  Te  0.432188  0.276686  0.465975
Te3831  Te  0.443552  0.283265  0.500000
Mo1916  Mo  0.447339  0.276686  0.482988
Te3832  Te  0.443552  0.283265  0.465975
Te3833  Te  0.432188  0.289844  0.500000
Mo1917  Mo  0.435976  0.296423  0.482988
Te3834  Te  0.432188  0.289844  0.465975
Te3835  Te  0.443552  0.296423  0.500000
Mo1918  Mo  0.447339  0.289844  0.482988
Te3836  Te  0.443552  0.296423  0.465975
Te3837  Te  0.432188  0.303002  0.500000
Mo1919  Mo  0.435976  0.309581  0.482988
Te3838  Te  0.432188  0.303002  0.465975
Te3839  Te  0.443552  0.309581  0.500000
Mo1920  Mo  0.447339  0.303002  0.482988
Te3840  Te  0.443552  0.309581  0.465975
Te3841  Te  0.454915  0.263529  0.500000
Mo1921  Mo  0.458703  0.270107  0.482988
Te3842  Te  0.454915  0.263529  0.465975
Te3843  Te  0.466279  0.270107  0.500000
Mo1922  Mo  0.470067  0.263529  0.482988
Te3844  Te  0.466279  0.270107  0.465975
Te3845  Te  0.454915  0.276686  0.500000
Mo1923  Mo  0.458703  0.283265  0.482988
Te3846  Te  0.454915  0.276686  0.465975
Te3847  Te  0.466279  0.283265  0.500000
Mo1924  Mo  0.470067  0.276686  0.482988
Te3848  Te  0.466279  0.283265  0.465975
Te3849  Te  0.454915  0.289844  0.500000
Mo1925  Mo  0.458703  0.296423  0.482988
Te3850  Te  0.454915  0.289844  0.465975
Te3851  Te  0.466279  0.296423  0.500000
Mo1926  Mo  0.470067  0.289844  0.482988
Te3852  Te  0.466279  0.296423  0.465975
Te3853  Te  0.454915  0.303002  0.500000
Mo1927  Mo  0.458703  0.309581  0.482988
Te3854  Te  0.454915  0.303002  0.465975
Te3855  Te  0.466279  0.309581  0.500000
Mo1928  Mo  0.470067  0.303002  0.482988
Te3856  Te  0.466279  0.309581  0.465975
Te3857  Te  0.477642  0.263529  0.500000
Mo1929  Mo  0.481430  0.270107  0.482988
Te3858  Te  0.477642  0.263529  0.465975
Te3859  Te  0.489006  0.270107  0.500000
Mo1930  Mo  0.492794  0.263529  0.482988
Te3860  Te  0.489006  0.270107  0.465975
Te3861  Te  0.477642  0.276686  0.500000
Mo1931  Mo  0.481430  0.283265  0.482988
Te3862  Te  0.477642  0.276686  0.465975
Te3863  Te  0.489006  0.283265  0.500000
Mo1932  Mo  0.492794  0.276686  0.482988
Te3864  Te  0.489006  0.283265  0.465975
Te3865  Te  0.477642  0.289844  0.500000
Mo1933  Mo  0.481430  0.296423  0.482988
Te3866  Te  0.477642  0.289844  0.465975
Te3867  Te  0.489006  0.296423  0.500000
Mo1934  Mo  0.492794  0.289844  0.482988
Te3868  Te  0.489006  0.296423  0.465975
Te3869  Te  0.477642  0.303002  0.500000
Mo1935  Mo  0.481430  0.309581  0.482988
Te3870  Te  0.477642  0.303002  0.465975
Te3871  Te  0.489006  0.309581  0.500000
Mo1936  Mo  0.492794  0.303002  0.482988
Te3872  Te  0.489006  0.309581  0.465975
Te3873  Te  0.500370  0.263529  0.500000
Mo1937  Mo  0.504158  0.270107  0.482988
Te3874  Te  0.500370  0.263529  0.465975
Te3875  Te  0.511733  0.270107  0.500000
Mo1938  Mo  0.515521  0.263529  0.482988
Te3876  Te  0.511733  0.270107  0.465975
Te3877  Te  0.500370  0.276686  0.500000
Mo1939  Mo  0.504158  0.283265  0.482988
Te3878  Te  0.500370  0.276686  0.465975
Te3879  Te  0.511733  0.283265  0.500000
Mo1940  Mo  0.515521  0.276686  0.482988
Te3880  Te  0.511733  0.283265  0.465975
Te3881  Te  0.500370  0.289844  0.500000
Mo1941  Mo  0.504158  0.296423  0.482988
Te3882  Te  0.500370  0.289844  0.465975
Te3883  Te  0.511733  0.296423  0.500000
Mo1942  Mo  0.515521  0.289844  0.482988
Te3884  Te  0.511733  0.296423  0.465975
Te3885  Te  0.500370  0.303002  0.500000
Mo1943  Mo  0.504158  0.309581  0.482988
Te3886  Te  0.500370  0.303002  0.465975
Te3887  Te  0.511733  0.309581  0.500000
Mo1944  Mo  0.515521  0.303002  0.482988
Te3888  Te  0.511733  0.309581  0.465975
Te3889  Te  0.523097  0.263529  0.500000
Mo1945  Mo  0.526885  0.270107  0.482988
Te3890  Te  0.523097  0.263529  0.465975
Te3891  Te  0.534461  0.270107  0.500000
Mo1946  Mo  0.538249  0.263529  0.482988
Te3892  Te  0.534461  0.270107  0.465975
Te3893  Te  0.523097  0.276686  0.500000
Mo1947  Mo  0.526885  0.283265  0.482988
Te3894  Te  0.523097  0.276686  0.465975
Te3895  Te  0.534461  0.283265  0.500000
Mo1948  Mo  0.538249  0.276686  0.482988
Te3896  Te  0.534461  0.283265  0.465975
Te3897  Te  0.523097  0.289844  0.500000
Mo1949  Mo  0.526885  0.296423  0.482988
Te3898  Te  0.523097  0.289844  0.465975
Te3899  Te  0.534461  0.296423  0.500000
Mo1950  Mo  0.538249  0.289844  0.482988
Te3900  Te  0.534461  0.296423  0.465975
Te3901  Te  0.523097  0.303002  0.500000
Mo1951  Mo  0.526885  0.309581  0.482988
Te3902  Te  0.523097  0.303002  0.465975
Te3903  Te  0.534461  0.309581  0.500000
Mo1952  Mo  0.538249  0.303002  0.482988
Te3904  Te  0.534461  0.309581  0.465975
Te3905  Te  0.545824  0.263529  0.500000
Mo1953  Mo  0.549612  0.270107  0.482988
Te3906  Te  0.545824  0.263529  0.465975
Te3907  Te  0.557188  0.270107  0.500000
Mo1954  Mo  0.560976  0.263529  0.482988
Te3908  Te  0.557188  0.270107  0.465975
Te3909  Te  0.545824  0.276686  0.500000
Mo1955  Mo  0.549612  0.283265  0.482988
Te3910  Te  0.545824  0.276686  0.465975
Te3911  Te  0.557188  0.283265  0.500000
Mo1956  Mo  0.560976  0.276686  0.482988
Te3912  Te  0.557188  0.283265  0.465975
Te3913  Te  0.545824  0.289844  0.500000
Mo1957  Mo  0.549612  0.296423  0.482988
Te3914  Te  0.545824  0.289844  0.465975
Te3915  Te  0.557188  0.296423  0.500000
Mo1958  Mo  0.560976  0.289844  0.482988
Te3916  Te  0.557188  0.296423  0.465975
Te3917  Te  0.545824  0.303002  0.500000
Mo1959  Mo  0.549612  0.309581  0.482988
Te3918  Te  0.545824  0.303002  0.465975
Te3919  Te  0.557188  0.309581  0.500000
Mo1960  Mo  0.560976  0.303002  0.482988
Te3920  Te  0.557188  0.309581  0.465975
Te3921  Te  0.568552  0.263529  0.500000
Mo1961  Mo  0.572339  0.270107  0.482988
Te3922  Te  0.568552  0.263529  0.465975
Te3923  Te  0.579915  0.270107  0.500000
Mo1962  Mo  0.583703  0.263529  0.482988
Te3924  Te  0.579915  0.270107  0.465975
Te3925  Te  0.568552  0.276686  0.500000
Mo1963  Mo  0.572339  0.283265  0.482988
Te3926  Te  0.568552  0.276686  0.465975
Te3927  Te  0.579915  0.283265  0.500000
Mo1964  Mo  0.583703  0.276686  0.482988
Te3928  Te  0.579915  0.283265  0.465975
Te3929  Te  0.568552  0.289844  0.500000
Mo1965  Mo  0.572339  0.296423  0.482988
Te3930  Te  0.568552  0.289844  0.465975
Te3931  Te  0.579915  0.296423  0.500000
Mo1966  Mo  0.583703  0.289844  0.482988
Te3932  Te  0.579915  0.296423  0.465975
Te3933  Te  0.568552  0.303002  0.500000
Mo1967  Mo  0.572339  0.309581  0.482988
Te3934  Te  0.568552  0.303002  0.465975
Te3935  Te  0.579915  0.309581  0.500000
Mo1968  Mo  0.583703  0.303002  0.482988
Te3936  Te  0.579915  0.309581  0.465975
Te3937  Te  0.591279  0.263529  0.500000
Mo1969  Mo  0.595067  0.270107  0.482988
Te3938  Te  0.591279  0.263529  0.465975
Te3939  Te  0.602642  0.270107  0.500000
Mo1970  Mo  0.606430  0.263529  0.482988
Te3940  Te  0.602642  0.270107  0.465975
Te3941  Te  0.591279  0.276686  0.500000
Mo1971  Mo  0.595067  0.283265  0.482988
Te3942  Te  0.591279  0.276686  0.465975
Te3943  Te  0.602642  0.283265  0.500000
Mo1972  Mo  0.606430  0.276686  0.482988
Te3944  Te  0.602642  0.283265  0.465975
Te3945  Te  0.591279  0.289844  0.500000
Mo1973  Mo  0.595067  0.296423  0.482988
Te3946  Te  0.591279  0.289844  0.465975
Te3947  Te  0.602642  0.296423  0.500000
Mo1974  Mo  0.606430  0.289844  0.482988
Te3948  Te  0.602642  0.296423  0.465975
Te3949  Te  0.591279  0.303002  0.500000
Mo1975  Mo  0.595067  0.309581  0.482988
Te3950  Te  0.591279  0.303002  0.465975
Te3951  Te  0.602642  0.309581  0.500000
Mo1976  Mo  0.606430  0.303002  0.482988
Te3952  Te  0.602642  0.309581  0.465975
Te3953  Te  0.614006  0.263529  0.500000
Mo1977  Mo  0.617794  0.270107  0.482988
Te3954  Te  0.614006  0.263529  0.465975
Te3955  Te  0.625370  0.270107  0.500000
Mo1978  Mo  0.629158  0.263529  0.482988
Te3956  Te  0.625370  0.270107  0.465975
Te3957  Te  0.614006  0.276686  0.500000
Mo1979  Mo  0.617794  0.283265  0.482988
Te3958  Te  0.614006  0.276686  0.465975
Te3959  Te  0.625370  0.283265  0.500000
Mo1980  Mo  0.629158  0.276686  0.482988
Te3960  Te  0.625370  0.283265  0.465975
Te3961  Te  0.614006  0.289844  0.500000
Mo1981  Mo  0.617794  0.296423  0.482988
Te3962  Te  0.614006  0.289844  0.465975
Te3963  Te  0.625370  0.296423  0.500000
Mo1982  Mo  0.629158  0.289844  0.482988
Te3964  Te  0.625370  0.296423  0.465975
Te3965  Te  0.614006  0.303002  0.500000
Mo1983  Mo  0.617794  0.309581  0.482988
Te3966  Te  0.614006  0.303002  0.465975
Te3967  Te  0.625370  0.309581  0.500000
Mo1984  Mo  0.629158  0.303002  0.482988
Te3968  Te  0.625370  0.309581  0.465975
Te3969  Te  0.636733  0.263529  0.500000
Mo1985  Mo  0.640521  0.270107  0.482988
Te3970  Te  0.636733  0.263529  0.465975
Te3971  Te  0.648097  0.270107  0.500000
Mo1986  Mo  0.651885  0.263529  0.482988
Te3972  Te  0.648097  0.270107  0.465975
Te3973  Te  0.636733  0.276686  0.500000
Mo1987  Mo  0.640521  0.283265  0.482988
Te3974  Te  0.636733  0.276686  0.465975
Te3975  Te  0.648097  0.283265  0.500000
Mo1988  Mo  0.651885  0.276686  0.482988
Te3976  Te  0.648097  0.283265  0.465975
Te3977  Te  0.636733  0.289844  0.500000
Mo1989  Mo  0.640521  0.296423  0.482988
Te3978  Te  0.636733  0.289844  0.465975
Te3979  Te  0.648097  0.296423  0.500000
Mo1990  Mo  0.651885  0.289844  0.482988
Te3980  Te  0.648097  0.296423  0.465975
Te3981  Te  0.636733  0.303002  0.500000
Mo1991  Mo  0.640521  0.309581  0.482988
Te3982  Te  0.636733  0.303002  0.465975
Te3983  Te  0.648097  0.309581  0.500000
Mo1992  Mo  0.651885  0.303002  0.482988
Te3984  Te  0.648097  0.309581  0.465975
Te3985  Te  0.659461  0.263529  0.500000
Mo1993  Mo  0.663248  0.270107  0.482988
Te3986  Te  0.659461  0.263529  0.465975
Te3987  Te  0.670824  0.270107  0.500000
Mo1994  Mo  0.674612  0.263529  0.482988
Te3988  Te  0.670824  0.270107  0.465975
Te3989  Te  0.659461  0.276686  0.500000
Mo1995  Mo  0.663248  0.283265  0.482988
Te3990  Te  0.659461  0.276686  0.465975
Te3991  Te  0.670824  0.283265  0.500000
Mo1996  Mo  0.674612  0.276686  0.482988
Te3992  Te  0.670824  0.283265  0.465975
Te3993  Te  0.659461  0.289844  0.500000
Mo1997  Mo  0.663248  0.296423  0.482988
Te3994  Te  0.659461  0.289844  0.465975
Te3995  Te  0.670824  0.296423  0.500000
Mo1998  Mo  0.674612  0.289844  0.482988
Te3996  Te  0.670824  0.296423  0.465975
Te3997  Te  0.659461  0.303002  0.500000
Mo1999  Mo  0.663248  0.309581  0.482988
Te3998  Te  0.659461  0.303002  0.465975
Te3999  Te  0.670824  0.309581  0.500000
Mo2000  Mo  0.674612  0.303002  0.482988
Te4000  Te  0.670824  0.309581  0.465975
Te4001  Te  0.682188  0.263529  0.500000
Mo2001  Mo  0.685976  0.270107  0.482988
Te4002  Te  0.682188  0.263529  0.465975
Te4003  Te  0.693551  0.270107  0.500000
Mo2002  Mo  0.697339  0.263529  0.482988
Te4004  Te  0.693551  0.270107  0.465975
Te4005  Te  0.682188  0.276686  0.500000
Mo2003  Mo  0.685976  0.283265  0.482988
Te4006  Te  0.682188  0.276686  0.465975
Te4007  Te  0.693551  0.283265  0.500000
Mo2004  Mo  0.697339  0.276686  0.482988
Te4008  Te  0.693551  0.283265  0.465975
Te4009  Te  0.682188  0.289844  0.500000
Mo2005  Mo  0.685976  0.296423  0.482988
Te4010  Te  0.682188  0.289844  0.465975
Te4011  Te  0.693551  0.296423  0.500000
Mo2006  Mo  0.697339  0.289844  0.482988
Te4012  Te  0.693551  0.296423  0.465975
Te4013  Te  0.682188  0.303002  0.500000
Mo2007  Mo  0.685976  0.309581  0.482988
Te4014  Te  0.682188  0.303002  0.465975
Te4015  Te  0.693551  0.309581  0.500000
Mo2008  Mo  0.697339  0.303002  0.482988
Te4016  Te  0.693551  0.309581  0.465975
Te4017  Te  0.704915  0.263529  0.500000
Mo2009  Mo  0.708703  0.270107  0.482988
Te4018  Te  0.704915  0.263529  0.465975
Te4019  Te  0.716279  0.270107  0.500000
Mo2010  Mo  0.720067  0.263529  0.482988
Te4020  Te  0.716279  0.270107  0.465975
Te4021  Te  0.704915  0.276686  0.500000
Mo2011  Mo  0.708703  0.283265  0.482988
Te4022  Te  0.704915  0.276686  0.465975
Te4023  Te  0.716279  0.283265  0.500000
Mo2012  Mo  0.720067  0.276686  0.482988
Te4024  Te  0.716279  0.283265  0.465975
Te4025  Te  0.704915  0.289844  0.500000
Mo2013  Mo  0.708703  0.296423  0.482988
Te4026  Te  0.704915  0.289844  0.465975
Te4027  Te  0.716279  0.296423  0.500000
Mo2014  Mo  0.720067  0.289844  0.482988
Te4028  Te  0.716279  0.296423  0.465975
Te4029  Te  0.704915  0.303002  0.500000
Mo2015  Mo  0.708703  0.309581  0.482988
Te4030  Te  0.704915  0.303002  0.465975
Te4031  Te  0.716279  0.309581  0.500000
Mo2016  Mo  0.720067  0.303002  0.482988
Te4032  Te  0.716279  0.309581  0.465975
Te4033  Te  0.727642  0.263529  0.500000
Mo2017  Mo  0.731430  0.270107  0.482988
Te4034  Te  0.727642  0.263529  0.465975
Te4035  Te  0.739006  0.270107  0.500000
Mo2018  Mo  0.742794  0.263529  0.482988
Te4036  Te  0.739006  0.270107  0.465975
Te4037  Te  0.727642  0.276686  0.500000
Mo2019  Mo  0.731430  0.283265  0.482988
Te4038  Te  0.727642  0.276686  0.465975
Te4039  Te  0.739006  0.283265  0.500000
Mo2020  Mo  0.742794  0.276686  0.482988
Te4040  Te  0.739006  0.283265  0.465975
Te4041  Te  0.727642  0.289844  0.500000
Mo2021  Mo  0.731430  0.296423  0.482988
Te4042  Te  0.727642  0.289844  0.465975
Te4043  Te  0.739006  0.296423  0.500000
Mo2022  Mo  0.742794  0.289844  0.482988
Te4044  Te  0.739006  0.296423  0.465975
Te4045  Te  0.727642  0.303002  0.500000
Mo2023  Mo  0.731430  0.309581  0.482988
Te4046  Te  0.727642  0.303002  0.465975
Te4047  Te  0.739006  0.309581  0.500000
Mo2024  Mo  0.742794  0.303002  0.482988
Te4048  Te  0.739006  0.309581  0.465975
Te4049  Te  0.750370  0.263529  0.500000
Mo2025  Mo  0.754158  0.270107  0.482988
Te4050  Te  0.750370  0.263529  0.465975
Te4051  Te  0.761733  0.270107  0.500000
Mo2026  Mo  0.765521  0.263529  0.482988
Te4052  Te  0.761733  0.270107  0.465975
Te4053  Te  0.750370  0.276686  0.500000
Mo2027  Mo  0.754158  0.283265  0.482988
Te4054  Te  0.750370  0.276686  0.465975
Te4055  Te  0.761733  0.283265  0.500000
Mo2028  Mo  0.765521  0.276686  0.482988
Te4056  Te  0.761733  0.283265  0.465975
Te4057  Te  0.750370  0.289844  0.500000
Mo2029  Mo  0.754158  0.296423  0.482988
Te4058  Te  0.750370  0.289844  0.465975
Te4059  Te  0.761733  0.296423  0.500000
Mo2030  Mo  0.765521  0.289844  0.482988
Te4060  Te  0.761733  0.296423  0.465975
Te4061  Te  0.750370  0.303002  0.500000
Mo2031  Mo  0.754158  0.309581  0.482988
Te4062  Te  0.750370  0.303002  0.465975
Te4063  Te  0.761733  0.309581  0.500000
Mo2032  Mo  0.765521  0.303002  0.482988
Te4064  Te  0.761733  0.309581  0.465975
Te4065  Te  0.773097  0.263529  0.500000
Mo2033  Mo  0.776885  0.270107  0.482988
Te4066  Te  0.773097  0.263529  0.465975
Te4067  Te  0.784461  0.270107  0.500000
Mo2034  Mo  0.788248  0.263529  0.482988
Te4068  Te  0.784461  0.270107  0.465975
Te4069  Te  0.773097  0.276686  0.500000
Mo2035  Mo  0.776885  0.283265  0.482988
Te4070  Te  0.773097  0.276686  0.465975
Te4071  Te  0.784461  0.283265  0.500000
Mo2036  Mo  0.788248  0.276686  0.482988
Te4072  Te  0.784461  0.283265  0.465975
Te4073  Te  0.773097  0.289844  0.500000
Mo2037  Mo  0.776885  0.296423  0.482988
Te4074  Te  0.773097  0.289844  0.465975
Te4075  Te  0.784461  0.296423  0.500000
Mo2038  Mo  0.788248  0.289844  0.482988
Te4076  Te  0.784461  0.296423  0.465975
Te4077  Te  0.773097  0.303002  0.500000
Mo2039  Mo  0.776885  0.309581  0.482988
Te4078  Te  0.773097  0.303002  0.465975
Te4079  Te  0.784461  0.309581  0.500000
Mo2040  Mo  0.788248  0.303002  0.482988
Te4080  Te  0.784461  0.309581  0.465975
Te4081  Te  0.795824  0.263529  0.500000
Mo2041  Mo  0.799612  0.270107  0.482988
Te4082  Te  0.795824  0.263529  0.465975
Te4083  Te  0.807188  0.270107  0.500000
Mo2042  Mo  0.810976  0.263529  0.482988
Te4084  Te  0.807188  0.270107  0.465975
Te4085  Te  0.795824  0.276686  0.500000
Mo2043  Mo  0.799612  0.283265  0.482988
Te4086  Te  0.795824  0.276686  0.465975
Te4087  Te  0.807188  0.283265  0.500000
Mo2044  Mo  0.810976  0.276686  0.482988
Te4088  Te  0.807188  0.283265  0.465975
Te4089  Te  0.795824  0.289844  0.500000
Mo2045  Mo  0.799612  0.296423  0.482988
Te4090  Te  0.795824  0.289844  0.465975
Te4091  Te  0.807188  0.296423  0.500000
Mo2046  Mo  0.810976  0.289844  0.482988
Te4092  Te  0.807188  0.296423  0.465975
Te4093  Te  0.795824  0.303002  0.500000
Mo2047  Mo  0.799612  0.309581  0.482988
Te4094  Te  0.795824  0.303002  0.465975
Te4095  Te  0.807188  0.309581  0.500000
Mo2048  Mo  0.810976  0.303002  0.482988
Te4096  Te  0.807188  0.309581  0.465975
Te4097  Te  0.818551  0.263529  0.500000
Mo2049  Mo  0.822339  0.270107  0.482988
Te4098  Te  0.818551  0.263529  0.465975
Te4099  Te  0.829915  0.270107  0.500000
Mo2050  Mo  0.833703  0.263529  0.482988
Te4100  Te  0.829915  0.270107  0.465975
Te4101  Te  0.818551  0.276686  0.500000
Mo2051  Mo  0.822339  0.283265  0.482988
Te4102  Te  0.818551  0.276686  0.465975
Te4103  Te  0.829915  0.283265  0.500000
Mo2052  Mo  0.833703  0.276686  0.482988
Te4104  Te  0.829915  0.283265  0.465975
Te4105  Te  0.818551  0.289844  0.500000
Mo2053  Mo  0.822339  0.296423  0.482988
Te4106  Te  0.818551  0.289844  0.465975
Te4107  Te  0.829915  0.296423  0.500000
Mo2054  Mo  0.833703  0.289844  0.482988
Te4108  Te  0.829915  0.296423  0.465975
Te4109  Te  0.818551  0.303002  0.500000
Mo2055  Mo  0.822339  0.309581  0.482988
Te4110  Te  0.818551  0.303002  0.465975
Te4111  Te  0.829915  0.309581  0.500000
Mo2056  Mo  0.833703  0.303002  0.482988
Te4112  Te  0.829915  0.309581  0.465975
Te4113  Te  0.841279  0.263529  0.500000
Mo2057  Mo  0.845067  0.270107  0.482988
Te4114  Te  0.841279  0.263529  0.465975
Te4115  Te  0.852642  0.270107  0.500000
Mo2058  Mo  0.856430  0.263529  0.482988
Te4116  Te  0.852642  0.270107  0.465975
Te4117  Te  0.841279  0.276686  0.500000
Mo2059  Mo  0.845067  0.283265  0.482988
Te4118  Te  0.841279  0.276686  0.465975
Te4119  Te  0.852642  0.283265  0.500000
Mo2060  Mo  0.856430  0.276686  0.482988
Te4120  Te  0.852642  0.283265  0.465975
Te4121  Te  0.841279  0.289844  0.500000
Mo2061  Mo  0.845067  0.296423  0.482988
Te4122  Te  0.841279  0.289844  0.465975
Te4123  Te  0.852642  0.296423  0.500000
Mo2062  Mo  0.856430  0.289844  0.482988
Te4124  Te  0.852642  0.296423  0.465975
Te4125  Te  0.841279  0.303002  0.500000
Mo2063  Mo  0.845067  0.309581  0.482988
Te4126  Te  0.841279  0.303002  0.465975
Te4127  Te  0.852642  0.309581  0.500000
Mo2064  Mo  0.856430  0.303002  0.482988
Te4128  Te  0.852642  0.309581  0.465975
Te4129  Te  0.864006  0.263529  0.500000
Mo2065  Mo  0.867794  0.270107  0.482988
Te4130  Te  0.864006  0.263529  0.465975
Te4131  Te  0.875370  0.270107  0.500000
Mo2066  Mo  0.879158  0.263529  0.482988
Te4132  Te  0.875370  0.270107  0.465975
Te4133  Te  0.864006  0.276686  0.500000
Mo2067  Mo  0.867794  0.283265  0.482988
Te4134  Te  0.864006  0.276686  0.465975
Te4135  Te  0.875370  0.283265  0.500000
Mo2068  Mo  0.879158  0.276686  0.482988
Te4136  Te  0.875370  0.283265  0.465975
Te4137  Te  0.864006  0.289844  0.500000
Mo2069  Mo  0.867794  0.296423  0.482988
Te4138  Te  0.864006  0.289844  0.465975
Te4139  Te  0.875370  0.296423  0.500000
Mo2070  Mo  0.879158  0.289844  0.482988
Te4140  Te  0.875370  0.296423  0.465975
Te4141  Te  0.864006  0.303002  0.500000
Mo2071  Mo  0.867794  0.309581  0.482988
Te4142  Te  0.864006  0.303002  0.465975
Te4143  Te  0.875370  0.309581  0.500000
Mo2072  Mo  0.879158  0.303002  0.482988
Te4144  Te  0.875370  0.309581  0.465975
Te4145  Te  0.886733  0.263529  0.500000
Mo2073  Mo  0.890521  0.270107  0.482988
Te4146  Te  0.886733  0.263529  0.465975
Te4147  Te  0.898097  0.270107  0.500000
Mo2074  Mo  0.901885  0.263529  0.482988
Te4148  Te  0.898097  0.270107  0.465975
Te4149  Te  0.886733  0.276686  0.500000
Mo2075  Mo  0.890521  0.283265  0.482988
Te4150  Te  0.886733  0.276686  0.465975
Te4151  Te  0.898097  0.283265  0.500000
Mo2076  Mo  0.901885  0.276686  0.482988
Te4152  Te  0.898097  0.283265  0.465975
Te4153  Te  0.886733  0.289844  0.500000
Mo2077  Mo  0.890521  0.296423  0.482988
Te4154  Te  0.886733  0.289844  0.465975
Te4155  Te  0.898097  0.296423  0.500000
Mo2078  Mo  0.901885  0.289844  0.482988
Te4156  Te  0.898097  0.296423  0.465975
Te4157  Te  0.886733  0.303002  0.500000
Mo2079  Mo  0.890521  0.309581  0.482988
Te4158  Te  0.886733  0.303002  0.465975
Te4159  Te  0.898097  0.309581  0.500000
Mo2080  Mo  0.901885  0.303002  0.482988
Te4160  Te  0.898097  0.309581  0.465975
Te4161  Te  0.909461  0.263529  0.500000
Mo2081  Mo  0.913248  0.270107  0.482988
Te4162  Te  0.909461  0.263529  0.465975
Te4163  Te  0.920824  0.270107  0.500000
Mo2082  Mo  0.924612  0.263529  0.482988
Te4164  Te  0.920824  0.270107  0.465975
Te4165  Te  0.909461  0.276686  0.500000
Mo2083  Mo  0.913248  0.283265  0.482988
Te4166  Te  0.909461  0.276686  0.465975
Te4167  Te  0.920824  0.283265  0.500000
Mo2084  Mo  0.924612  0.276686  0.482988
Te4168  Te  0.920824  0.283265  0.465975
Te4169  Te  0.909461  0.289844  0.500000
Mo2085  Mo  0.913248  0.296423  0.482988
Te4170  Te  0.909461  0.289844  0.465975
Te4171  Te  0.920824  0.296423  0.500000
Mo2086  Mo  0.924612  0.289844  0.482988
Te4172  Te  0.920824  0.296423  0.465975
Te4173  Te  0.909461  0.303002  0.500000
Mo2087  Mo  0.913248  0.309581  0.482988
Te4174  Te  0.909461  0.303002  0.465975
Te4175  Te  0.920824  0.309581  0.500000
Mo2088  Mo  0.924612  0.303002  0.482988
Te4176  Te  0.920824  0.309581  0.465975
Te4177  Te  0.932188  0.263529  0.500000
Mo2089  Mo  0.935976  0.270107  0.482988
Te4178  Te  0.932188  0.263529  0.465975
Te4179  Te  0.943552  0.270107  0.500000
Mo2090  Mo  0.947339  0.263529  0.482988
Te4180  Te  0.943552  0.270107  0.465975
Te4181  Te  0.932188  0.276686  0.500000
Mo2091  Mo  0.935976  0.283265  0.482988
Te4182  Te  0.932188  0.276686  0.465975
Te4183  Te  0.943552  0.283265  0.500000
Mo2092  Mo  0.947339  0.276686  0.482988
Te4184  Te  0.943552  0.283265  0.465975
Te4185  Te  0.932188  0.289844  0.500000
Mo2093  Mo  0.935976  0.296423  0.482988
Te4186  Te  0.932188  0.289844  0.465975
Te4187  Te  0.943552  0.296423  0.500000
Mo2094  Mo  0.947339  0.289844  0.482988
Te4188  Te  0.943552  0.296423  0.465975
Te4189  Te  0.932188  0.303002  0.500000
Mo2095  Mo  0.935976  0.309581  0.482988
Te4190  Te  0.932188  0.303002  0.465975
Te4191  Te  0.943552  0.309581  0.500000
Mo2096  Mo  0.947339  0.303002  0.482988
Te4192  Te  0.943552  0.309581  0.465975
Te4193  Te  0.954915  0.263529  0.500000
Mo2097  Mo  0.958703  0.270107  0.482988
Te4194  Te  0.954915  0.263529  0.465975
Te4195  Te  0.966279  0.270107  0.500000
Mo2098  Mo  0.970067  0.263529  0.482988
Te4196  Te  0.966279  0.270107  0.465975
Te4197  Te  0.954915  0.276686  0.500000
Mo2099  Mo  0.958703  0.283265  0.482988
Te4198  Te  0.954915  0.276686  0.465975
Te4199  Te  0.966279  0.283265  0.500000
Mo2100  Mo  0.970067  0.276686  0.482988
Te4200  Te  0.966279  0.283265  0.465975
Te4201  Te  0.954915  0.289844  0.500000
Mo2101  Mo  0.958703  0.296423  0.482988
Te4202  Te  0.954915  0.289844  0.465975
Te4203  Te  0.966279  0.296423  0.500000
Mo2102  Mo  0.970067  0.289844  0.482988
Te4204  Te  0.966279  0.296423  0.465975
Te4205  Te  0.954915  0.303002  0.500000
Mo2103  Mo  0.958703  0.309581  0.482988
Te4206  Te  0.954915  0.303002  0.465975
Te4207  Te  0.966279  0.309581  0.500000
Mo2104  Mo  0.970067  0.303002  0.482988
Te4208  Te  0.966279  0.309581  0.465975
Te4209  Te  0.977642  0.263529  0.500000
Mo2105  Mo  0.981430  0.270107  0.482988
Te4210  Te  0.977642  0.263529  0.465975
Te4211  Te  0.989006  0.270107  0.500000
Mo2106  Mo  0.992794  0.263529  0.482988
Te4212  Te  0.989006  0.270107  0.465975
Te4213  Te  0.977642  0.276686  0.500000
Mo2107  Mo  0.981430  0.283265  0.482988
Te4214  Te  0.977642  0.276686  0.465975
Te4215  Te  0.989006  0.283265  0.500000
Mo2108  Mo  0.992794  0.276686  0.482988
Te4216  Te  0.989006  0.283265  0.465975
Te4217  Te  0.977642  0.289844  0.500000
Mo2109  Mo  0.981430  0.296423  0.482988
Te4218  Te  0.977642  0.289844  0.465975
Te4219  Te  0.989006  0.296423  0.500000
Mo2110  Mo  0.992794  0.289844  0.482988
Te4220  Te  0.989006  0.296423  0.465975
Te4221  Te  0.977642  0.303002  0.500000
Mo2111  Mo  0.981430  0.309581  0.482988
Te4222  Te  0.977642  0.303002  0.465975
Te4223  Te  0.989006  0.309581  0.500000
Mo2112  Mo  0.992794  0.303002  0.482988
Te4224  Te  0.989006  0.309581  0.465975
Te4225  Te  0.000370  0.316160  0.500000
Mo2113  Mo  0.004158  0.322739  0.482988
Te4226  Te  0.000370  0.316160  0.465975
Te4227  Te  0.011733  0.322739  0.500000
Mo2114  Mo  0.015521  0.316160  0.482988
Te4228  Te  0.011733  0.322739  0.465975
Te4229  Te  0.000370  0.329318  0.500000
Mo2115  Mo  0.004158  0.335897  0.482988
Te4230  Te  0.000370  0.329318  0.465975
Te4231  Te  0.011733  0.335897  0.500000
Mo2116  Mo  0.015521  0.329318  0.482988
Te4232  Te  0.011733  0.335897  0.465975
Te4233  Te  0.000370  0.342476  0.500000
Mo2117  Mo  0.004158  0.349055  0.482988
Te4234  Te  0.000370  0.342476  0.465975
Te4235  Te  0.011733  0.349055  0.500000
Mo2118  Mo  0.015521  0.342476  0.482988
Te4236  Te  0.011733  0.349055  0.465975
Te4237  Te  0.000370  0.355634  0.500000
Mo2119  Mo  0.004158  0.362213  0.482988
Te4238  Te  0.000370  0.355634  0.465975
Te4239  Te  0.011733  0.362213  0.500000
Mo2120  Mo  0.015521  0.355634  0.482988
Te4240  Te  0.011733  0.362213  0.465975
Te4241  Te  0.023097  0.316160  0.500000
Mo2121  Mo  0.026885  0.322739  0.482988
Te4242  Te  0.023097  0.316160  0.465975
Te4243  Te  0.034461  0.322739  0.500000
Mo2122  Mo  0.038249  0.316160  0.482988
Te4244  Te  0.034461  0.322739  0.465975
Te4245  Te  0.023097  0.329318  0.500000
Mo2123  Mo  0.026885  0.335897  0.482988
Te4246  Te  0.023097  0.329318  0.465975
Te4247  Te  0.034461  0.335897  0.500000
Mo2124  Mo  0.038249  0.329318  0.482988
Te4248  Te  0.034461  0.335897  0.465975
Te4249  Te  0.023097  0.342476  0.500000
Mo2125  Mo  0.026885  0.349055  0.482988
Te4250  Te  0.023097  0.342476  0.465975
Te4251  Te  0.034461  0.349055  0.500000
Mo2126  Mo  0.038249  0.342476  0.482988
Te4252  Te  0.034461  0.349055  0.465975
Te4253  Te  0.023097  0.355634  0.500000
Mo2127  Mo  0.026885  0.362213  0.482988
Te4254  Te  0.023097  0.355634  0.465975
Te4255  Te  0.034461  0.362213  0.500000
Mo2128  Mo  0.038249  0.355634  0.482988
Te4256  Te  0.034461  0.362213  0.465975
Te4257  Te  0.045824  0.316160  0.500000
Mo2129  Mo  0.049612  0.322739  0.482988
Te4258  Te  0.045824  0.316160  0.465975
Te4259  Te  0.057188  0.322739  0.500000
Mo2130  Mo  0.060976  0.316160  0.482988
Te4260  Te  0.057188  0.322739  0.465975
Te4261  Te  0.045824  0.329318  0.500000
Mo2131  Mo  0.049612  0.335897  0.482988
Te4262  Te  0.045824  0.329318  0.465975
Te4263  Te  0.057188  0.335897  0.500000
Mo2132  Mo  0.060976  0.329318  0.482988
Te4264  Te  0.057188  0.335897  0.465975
Te4265  Te  0.045824  0.342476  0.500000
Mo2133  Mo  0.049612  0.349055  0.482988
Te4266  Te  0.045824  0.342476  0.465975
Te4267  Te  0.057188  0.349055  0.500000
Mo2134  Mo  0.060976  0.342476  0.482988
Te4268  Te  0.057188  0.349055  0.465975
Te4269  Te  0.045824  0.355634  0.500000
Mo2135  Mo  0.049612  0.362213  0.482988
Te4270  Te  0.045824  0.355634  0.465975
Te4271  Te  0.057188  0.362213  0.500000
Mo2136  Mo  0.060976  0.355634  0.482988
Te4272  Te  0.057188  0.362213  0.465975
Te4273  Te  0.068552  0.316160  0.500000
Mo2137  Mo  0.072339  0.322739  0.482988
Te4274  Te  0.068552  0.316160  0.465975
Te4275  Te  0.079915  0.322739  0.500000
Mo2138  Mo  0.083703  0.316160  0.482988
Te4276  Te  0.079915  0.322739  0.465975
Te4277  Te  0.068552  0.329318  0.500000
Mo2139  Mo  0.072339  0.335897  0.482988
Te4278  Te  0.068552  0.329318  0.465975
Te4279  Te  0.079915  0.335897  0.500000
Mo2140  Mo  0.083703  0.329318  0.482988
Te4280  Te  0.079915  0.335897  0.465975
Te4281  Te  0.068552  0.342476  0.500000
Mo2141  Mo  0.072339  0.349055  0.482988
Te4282  Te  0.068552  0.342476  0.465975
Te4283  Te  0.079915  0.349055  0.500000
Mo2142  Mo  0.083703  0.342476  0.482988
Te4284  Te  0.079915  0.349055  0.465975
Te4285  Te  0.068552  0.355634  0.500000
Mo2143  Mo  0.072339  0.362213  0.482988
Te4286  Te  0.068552  0.355634  0.465975
Te4287  Te  0.079915  0.362213  0.500000
Mo2144  Mo  0.083703  0.355634  0.482988
Te4288  Te  0.079915  0.362213  0.465975
Te4289  Te  0.091279  0.316160  0.500000
Mo2145  Mo  0.095067  0.322739  0.482988
Te4290  Te  0.091279  0.316160  0.465975
Te4291  Te  0.102642  0.322739  0.500000
Mo2146  Mo  0.106430  0.316160  0.482988
Te4292  Te  0.102642  0.322739  0.465975
Te4293  Te  0.091279  0.329318  0.500000
Mo2147  Mo  0.095067  0.335897  0.482988
Te4294  Te  0.091279  0.329318  0.465975
Te4295  Te  0.102642  0.335897  0.500000
Mo2148  Mo  0.106430  0.329318  0.482988
Te4296  Te  0.102642  0.335897  0.465975
Te4297  Te  0.091279  0.342476  0.500000
Mo2149  Mo  0.095067  0.349055  0.482988
Te4298  Te  0.091279  0.342476  0.465975
Te4299  Te  0.102642  0.349055  0.500000
Mo2150  Mo  0.106430  0.342476  0.482988
Te4300  Te  0.102642  0.349055  0.465975
Te4301  Te  0.091279  0.355634  0.500000
Mo2151  Mo  0.095067  0.362213  0.482988
Te4302  Te  0.091279  0.355634  0.465975
Te4303  Te  0.102642  0.362213  0.500000
Mo2152  Mo  0.106430  0.355634  0.482988
Te4304  Te  0.102642  0.362213  0.465975
Te4305  Te  0.114006  0.316160  0.500000
Mo2153  Mo  0.117794  0.322739  0.482988
Te4306  Te  0.114006  0.316160  0.465975
Te4307  Te  0.125370  0.322739  0.500000
Mo2154  Mo  0.129158  0.316160  0.482988
Te4308  Te  0.125370  0.322739  0.465975
Te4309  Te  0.114006  0.329318  0.500000
Mo2155  Mo  0.117794  0.335897  0.482988
Te4310  Te  0.114006  0.329318  0.465975
Te4311  Te  0.125370  0.335897  0.500000
Mo2156  Mo  0.129158  0.329318  0.482988
Te4312  Te  0.125370  0.335897  0.465975
Te4313  Te  0.114006  0.342476  0.500000
Mo2157  Mo  0.117794  0.349055  0.482988
Te4314  Te  0.114006  0.342476  0.465975
Te4315  Te  0.125370  0.349055  0.500000
Mo2158  Mo  0.129158  0.342476  0.482988
Te4316  Te  0.125370  0.349055  0.465975
Te4317  Te  0.114006  0.355634  0.500000
Mo2159  Mo  0.117794  0.362213  0.482988
Te4318  Te  0.114006  0.355634  0.465975
Te4319  Te  0.125370  0.362213  0.500000
Mo2160  Mo  0.129158  0.355634  0.482988
Te4320  Te  0.125370  0.362213  0.465975
Te4321  Te  0.136733  0.316160  0.500000
Mo2161  Mo  0.140521  0.322739  0.482988
Te4322  Te  0.136733  0.316160  0.465975
Te4323  Te  0.148097  0.322739  0.500000
Mo2162  Mo  0.151885  0.316160  0.482988
Te4324  Te  0.148097  0.322739  0.465975
Te4325  Te  0.136733  0.329318  0.500000
Mo2163  Mo  0.140521  0.335897  0.482988
Te4326  Te  0.136733  0.329318  0.465975
Te4327  Te  0.148097  0.335897  0.500000
Mo2164  Mo  0.151885  0.329318  0.482988
Te4328  Te  0.148097  0.335897  0.465975
Te4329  Te  0.136733  0.342476  0.500000
Mo2165  Mo  0.140521  0.349055  0.482988
Te4330  Te  0.136733  0.342476  0.465975
Te4331  Te  0.148097  0.349055  0.500000
Mo2166  Mo  0.151885  0.342476  0.482988
Te4332  Te  0.148097  0.349055  0.465975
Te4333  Te  0.136733  0.355634  0.500000
Mo2167  Mo  0.140521  0.362213  0.482988
Te4334  Te  0.136733  0.355634  0.465975
Te4335  Te  0.148097  0.362213  0.500000
Mo2168  Mo  0.151885  0.355634  0.482988
Te4336  Te  0.148097  0.362213  0.465975
Te4337  Te  0.159461  0.316160  0.500000
Mo2169  Mo  0.163248  0.322739  0.482988
Te4338  Te  0.159461  0.316160  0.465975
Te4339  Te  0.170824  0.322739  0.500000
Mo2170  Mo  0.174612  0.316160  0.482988
Te4340  Te  0.170824  0.322739  0.465975
Te4341  Te  0.159461  0.329318  0.500000
Mo2171  Mo  0.163248  0.335897  0.482988
Te4342  Te  0.159461  0.329318  0.465975
Te4343  Te  0.170824  0.335897  0.500000
Mo2172  Mo  0.174612  0.329318  0.482988
Te4344  Te  0.170824  0.335897  0.465975
Te4345  Te  0.159461  0.342476  0.500000
Mo2173  Mo  0.163248  0.349055  0.482988
Te4346  Te  0.159461  0.342476  0.465975
Te4347  Te  0.170824  0.349055  0.500000
Mo2174  Mo  0.174612  0.342476  0.482988
Te4348  Te  0.170824  0.349055  0.465975
Te4349  Te  0.159461  0.355634  0.500000
Mo2175  Mo  0.163248  0.362213  0.482988
Te4350  Te  0.159461  0.355634  0.465975
Te4351  Te  0.170824  0.362213  0.500000
Mo2176  Mo  0.174612  0.355634  0.482988
Te4352  Te  0.170824  0.362213  0.465975
Te4353  Te  0.182188  0.316160  0.500000
Mo2177  Mo  0.185976  0.322739  0.482988
Te4354  Te  0.182188  0.316160  0.465975
Te4355  Te  0.193551  0.322739  0.500000
Mo2178  Mo  0.197339  0.316160  0.482988
Te4356  Te  0.193551  0.322739  0.465975
Te4357  Te  0.182188  0.329318  0.500000
Mo2179  Mo  0.185976  0.335897  0.482988
Te4358  Te  0.182188  0.329318  0.465975
Te4359  Te  0.193551  0.335897  0.500000
Mo2180  Mo  0.197339  0.329318  0.482988
Te4360  Te  0.193551  0.335897  0.465975
Te4361  Te  0.182188  0.342476  0.500000
Mo2181  Mo  0.185976  0.349055  0.482988
Te4362  Te  0.182188  0.342476  0.465975
Te4363  Te  0.193551  0.349055  0.500000
Mo2182  Mo  0.197339  0.342476  0.482988
Te4364  Te  0.193551  0.349055  0.465975
Te4365  Te  0.182188  0.355634  0.500000
Mo2183  Mo  0.185976  0.362213  0.482988
Te4366  Te  0.182188  0.355634  0.465975
Te4367  Te  0.193551  0.362213  0.500000
Mo2184  Mo  0.197339  0.355634  0.482988
Te4368  Te  0.193551  0.362213  0.465975
Te4369  Te  0.204915  0.316160  0.500000
Mo2185  Mo  0.208703  0.322739  0.482988
Te4370  Te  0.204915  0.316160  0.465975
Te4371  Te  0.216279  0.322739  0.500000
Mo2186  Mo  0.220067  0.316160  0.482988
Te4372  Te  0.216279  0.322739  0.465975
Te4373  Te  0.204915  0.329318  0.500000
Mo2187  Mo  0.208703  0.335897  0.482988
Te4374  Te  0.204915  0.329318  0.465975
Te4375  Te  0.216279  0.335897  0.500000
Mo2188  Mo  0.220067  0.329318  0.482988
Te4376  Te  0.216279  0.335897  0.465975
Te4377  Te  0.204915  0.342476  0.500000
Mo2189  Mo  0.208703  0.349055  0.482988
Te4378  Te  0.204915  0.342476  0.465975
Te4379  Te  0.216279  0.349055  0.500000
Mo2190  Mo  0.220067  0.342476  0.482988
Te4380  Te  0.216279  0.349055  0.465975
Te4381  Te  0.204915  0.355634  0.500000
Mo2191  Mo  0.208703  0.362213  0.482988
Te4382  Te  0.204915  0.355634  0.465975
Te4383  Te  0.216279  0.362213  0.500000
Mo2192  Mo  0.220067  0.355634  0.482988
Te4384  Te  0.216279  0.362213  0.465975
Te4385  Te  0.227642  0.316160  0.500000
Mo2193  Mo  0.231430  0.322739  0.482988
Te4386  Te  0.227642  0.316160  0.465975
Te4387  Te  0.239006  0.322739  0.500000
Mo2194  Mo  0.242794  0.316160  0.482988
Te4388  Te  0.239006  0.322739  0.465975
Te4389  Te  0.227642  0.329318  0.500000
Mo2195  Mo  0.231430  0.335897  0.482988
Te4390  Te  0.227642  0.329318  0.465975
Te4391  Te  0.239006  0.335897  0.500000
Mo2196  Mo  0.242794  0.329318  0.482988
Te4392  Te  0.239006  0.335897  0.465975
Te4393  Te  0.227642  0.342476  0.500000
Mo2197  Mo  0.231430  0.349055  0.482988
Te4394  Te  0.227642  0.342476  0.465975
Te4395  Te  0.239006  0.349055  0.500000
Mo2198  Mo  0.242794  0.342476  0.482988
Te4396  Te  0.239006  0.349055  0.465975
Te4397  Te  0.227642  0.355634  0.500000
Mo2199  Mo  0.231430  0.362213  0.482988
Te4398  Te  0.227642  0.355634  0.465975
Te4399  Te  0.239006  0.362213  0.500000
Mo2200  Mo  0.242794  0.355634  0.482988
Te4400  Te  0.239006  0.362213  0.465975
Te4401  Te  0.250370  0.316160  0.500000
Mo2201  Mo  0.254158  0.322739  0.482988
Te4402  Te  0.250370  0.316160  0.465975
Te4403  Te  0.261733  0.322739  0.500000
Mo2202  Mo  0.265521  0.316160  0.482988
Te4404  Te  0.261733  0.322739  0.465975
Te4405  Te  0.250370  0.329318  0.500000
Mo2203  Mo  0.254158  0.335897  0.482988
Te4406  Te  0.250370  0.329318  0.465975
Te4407  Te  0.261733  0.335897  0.500000
Mo2204  Mo  0.265521  0.329318  0.482988
Te4408  Te  0.261733  0.335897  0.465975
Te4409  Te  0.250370  0.342476  0.500000
Mo2205  Mo  0.254158  0.349055  0.482988
Te4410  Te  0.250370  0.342476  0.465975
Te4411  Te  0.261733  0.349055  0.500000
Mo2206  Mo  0.265521  0.342476  0.482988
Te4412  Te  0.261733  0.349055  0.465975
Te4413  Te  0.250370  0.355634  0.500000
Mo2207  Mo  0.254158  0.362213  0.482988
Te4414  Te  0.250370  0.355634  0.465975
Te4415  Te  0.261733  0.362213  0.500000
Mo2208  Mo  0.265521  0.355634  0.482988
Te4416  Te  0.261733  0.362213  0.465975
Te4417  Te  0.273097  0.316160  0.500000
Mo2209  Mo  0.276885  0.322739  0.482988
Te4418  Te  0.273097  0.316160  0.465975
Te4419  Te  0.284461  0.322739  0.500000
Mo2210  Mo  0.288248  0.316160  0.482988
Te4420  Te  0.284461  0.322739  0.465975
Te4421  Te  0.273097  0.329318  0.500000
Mo2211  Mo  0.276885  0.335897  0.482988
Te4422  Te  0.273097  0.329318  0.465975
Te4423  Te  0.284461  0.335897  0.500000
Mo2212  Mo  0.288248  0.329318  0.482988
Te4424  Te  0.284461  0.335897  0.465975
Te4425  Te  0.273097  0.342476  0.500000
Mo2213  Mo  0.276885  0.349055  0.482988
Te4426  Te  0.273097  0.342476  0.465975
Te4427  Te  0.284461  0.349055  0.500000
Mo2214  Mo  0.288248  0.342476  0.482988
Te4428  Te  0.284461  0.349055  0.465975
Te4429  Te  0.273097  0.355634  0.500000
Mo2215  Mo  0.276885  0.362213  0.482988
Te4430  Te  0.273097  0.355634  0.465975
Te4431  Te  0.284461  0.362213  0.500000
Mo2216  Mo  0.288248  0.355634  0.482988
Te4432  Te  0.284461  0.362213  0.465975
Te4433  Te  0.295824  0.316160  0.500000
Mo2217  Mo  0.299612  0.322739  0.482988
Te4434  Te  0.295824  0.316160  0.465975
Te4435  Te  0.307188  0.322739  0.500000
Mo2218  Mo  0.310976  0.316160  0.482988
Te4436  Te  0.307188  0.322739  0.465975
Te4437  Te  0.295824  0.329318  0.500000
Mo2219  Mo  0.299612  0.335897  0.482988
Te4438  Te  0.295824  0.329318  0.465975
Te4439  Te  0.307188  0.335897  0.500000
Mo2220  Mo  0.310976  0.329318  0.482988
Te4440  Te  0.307188  0.335897  0.465975
Te4441  Te  0.295824  0.342476  0.500000
Mo2221  Mo  0.299612  0.349055  0.482988
Te4442  Te  0.295824  0.342476  0.465975
Te4443  Te  0.307188  0.349055  0.500000
Mo2222  Mo  0.310976  0.342476  0.482988
Te4444  Te  0.307188  0.349055  0.465975
Te4445  Te  0.295824  0.355634  0.500000
Mo2223  Mo  0.299612  0.362213  0.482988
Te4446  Te  0.295824  0.355634  0.465975
Te4447  Te  0.307188  0.362213  0.500000
Mo2224  Mo  0.310976  0.355634  0.482988
Te4448  Te  0.307188  0.362213  0.465975
Te4449  Te  0.318551  0.316160  0.500000
Mo2225  Mo  0.322339  0.322739  0.482988
Te4450  Te  0.318551  0.316160  0.465975
Te4451  Te  0.329915  0.322739  0.500000
Mo2226  Mo  0.333703  0.316160  0.482988
Te4452  Te  0.329915  0.322739  0.465975
Te4453  Te  0.318551  0.329318  0.500000
Mo2227  Mo  0.322339  0.335897  0.482988
Te4454  Te  0.318551  0.329318  0.465975
Te4455  Te  0.329915  0.335897  0.500000
Mo2228  Mo  0.333703  0.329318  0.482988
Te4456  Te  0.329915  0.335897  0.465975
Te4457  Te  0.318551  0.342476  0.500000
Mo2229  Mo  0.322339  0.349055  0.482988
Te4458  Te  0.318551  0.342476  0.465975
Te4459  Te  0.329915  0.349055  0.500000
Mo2230  Mo  0.333703  0.342476  0.482988
Te4460  Te  0.329915  0.349055  0.465975
Te4461  Te  0.318551  0.355634  0.500000
Mo2231  Mo  0.322339  0.362213  0.482988
Te4462  Te  0.318551  0.355634  0.465975
Te4463  Te  0.329915  0.362213  0.500000
Mo2232  Mo  0.333703  0.355634  0.482988
Te4464  Te  0.329915  0.362213  0.465975
Te4465  Te  0.341279  0.316160  0.500000
Mo2233  Mo  0.345067  0.322739  0.482988
Te4466  Te  0.341279  0.316160  0.465975
Te4467  Te  0.352642  0.322739  0.500000
Mo2234  Mo  0.356430  0.316160  0.482988
Te4468  Te  0.352642  0.322739  0.465975
Te4469  Te  0.341279  0.329318  0.500000
Mo2235  Mo  0.345067  0.335897  0.482988
Te4470  Te  0.341279  0.329318  0.465975
Te4471  Te  0.352642  0.335897  0.500000
Mo2236  Mo  0.356430  0.329318  0.482988
Te4472  Te  0.352642  0.335897  0.465975
Te4473  Te  0.341279  0.342476  0.500000
Mo2237  Mo  0.345067  0.349055  0.482988
Te4474  Te  0.341279  0.342476  0.465975
Te4475  Te  0.352642  0.349055  0.500000
Mo2238  Mo  0.356430  0.342476  0.482988
Te4476  Te  0.352642  0.349055  0.465975
Te4477  Te  0.341279  0.355634  0.500000
Mo2239  Mo  0.345067  0.362213  0.482988
Te4478  Te  0.341279  0.355634  0.465975
Te4479  Te  0.352642  0.362213  0.500000
Mo2240  Mo  0.356430  0.355634  0.482988
Te4480  Te  0.352642  0.362213  0.465975
Te4481  Te  0.364006  0.316160  0.500000
Mo2241  Mo  0.367794  0.322739  0.482988
Te4482  Te  0.364006  0.316160  0.465975
Te4483  Te  0.375370  0.322739  0.500000
Mo2242  Mo  0.379158  0.316160  0.482988
Te4484  Te  0.375370  0.322739  0.465975
Te4485  Te  0.364006  0.329318  0.500000
Mo2243  Mo  0.367794  0.335897  0.482988
Te4486  Te  0.364006  0.329318  0.465975
Te4487  Te  0.375370  0.335897  0.500000
Mo2244  Mo  0.379158  0.329318  0.482988
Te4488  Te  0.375370  0.335897  0.465975
Te4489  Te  0.364006  0.342476  0.500000
Mo2245  Mo  0.367794  0.349055  0.482988
Te4490  Te  0.364006  0.342476  0.465975
Te4491  Te  0.375370  0.349055  0.500000
Mo2246  Mo  0.379158  0.342476  0.482988
Te4492  Te  0.375370  0.349055  0.465975
Te4493  Te  0.364006  0.355634  0.500000
Mo2247  Mo  0.367794  0.362213  0.482988
Te4494  Te  0.364006  0.355634  0.465975
Te4495  Te  0.375370  0.362213  0.500000
Mo2248  Mo  0.379158  0.355634  0.482988
Te4496  Te  0.375370  0.362213  0.465975
Te4497  Te  0.386733  0.316160  0.500000
Mo2249  Mo  0.390521  0.322739  0.482988
Te4498  Te  0.386733  0.316160  0.465975
Te4499  Te  0.398097  0.322739  0.500000
Mo2250  Mo  0.401885  0.316160  0.482988
Te4500  Te  0.398097  0.322739  0.465975
Te4501  Te  0.386733  0.329318  0.500000
Mo2251  Mo  0.390521  0.335897  0.482988
Te4502  Te  0.386733  0.329318  0.465975
Te4503  Te  0.398097  0.335897  0.500000
Mo2252  Mo  0.401885  0.329318  0.482988
Te4504  Te  0.398097  0.335897  0.465975
Te4505  Te  0.386733  0.342476  0.500000
Mo2253  Mo  0.390521  0.349055  0.482988
Te4506  Te  0.386733  0.342476  0.465975
Te4507  Te  0.398097  0.349055  0.500000
Mo2254  Mo  0.401885  0.342476  0.482988
Te4508  Te  0.398097  0.349055  0.465975
Te4509  Te  0.386733  0.355634  0.500000
Mo2255  Mo  0.390521  0.362213  0.482988
Te4510  Te  0.386733  0.355634  0.465975
Te4511  Te  0.398097  0.362213  0.500000
Mo2256  Mo  0.401885  0.355634  0.482988
Te4512  Te  0.398097  0.362213  0.465975
Te4513  Te  0.409461  0.316160  0.500000
Mo2257  Mo  0.413248  0.322739  0.482988
Te4514  Te  0.409461  0.316160  0.465975
Te4515  Te  0.420824  0.322739  0.500000
Mo2258  Mo  0.424612  0.316160  0.482988
Te4516  Te  0.420824  0.322739  0.465975
Te4517  Te  0.409461  0.329318  0.500000
Mo2259  Mo  0.413248  0.335897  0.482988
Te4518  Te  0.409461  0.329318  0.465975
Te4519  Te  0.420824  0.335897  0.500000
Mo2260  Mo  0.424612  0.329318  0.482988
Te4520  Te  0.420824  0.335897  0.465975
Te4521  Te  0.409461  0.342476  0.500000
Mo2261  Mo  0.413248  0.349055  0.482988
Te4522  Te  0.409461  0.342476  0.465975
Te4523  Te  0.420824  0.349055  0.500000
Mo2262  Mo  0.424612  0.342476  0.482988
Te4524  Te  0.420824  0.349055  0.465975
Te4525  Te  0.409461  0.355634  0.500000
Mo2263  Mo  0.413248  0.362213  0.482988
Te4526  Te  0.409461  0.355634  0.465975
Te4527  Te  0.420824  0.362213  0.500000
Mo2264  Mo  0.424612  0.355634  0.482988
Te4528  Te  0.420824  0.362213  0.465975
Te4529  Te  0.432188  0.316160  0.500000
Mo2265  Mo  0.435976  0.322739  0.482988
Te4530  Te  0.432188  0.316160  0.465975
Te4531  Te  0.443552  0.322739  0.500000
Mo2266  Mo  0.447339  0.316160  0.482988
Te4532  Te  0.443552  0.322739  0.465975
Te4533  Te  0.432188  0.329318  0.500000
Mo2267  Mo  0.435976  0.335897  0.482988
Te4534  Te  0.432188  0.329318  0.465975
Te4535  Te  0.443552  0.335897  0.500000
Mo2268  Mo  0.447339  0.329318  0.482988
Te4536  Te  0.443552  0.335897  0.465975
Te4537  Te  0.432188  0.342476  0.500000
Mo2269  Mo  0.435976  0.349055  0.482988
Te4538  Te  0.432188  0.342476  0.465975
Te4539  Te  0.443552  0.349055  0.500000
Mo2270  Mo  0.447339  0.342476  0.482988
Te4540  Te  0.443552  0.349055  0.465975
Te4541  Te  0.432188  0.355634  0.500000
Mo2271  Mo  0.435976  0.362213  0.482988
Te4542  Te  0.432188  0.355634  0.465975
Te4543  Te  0.443552  0.362213  0.500000
Mo2272  Mo  0.447339  0.355634  0.482988
Te4544  Te  0.443552  0.362213  0.465975
Te4545  Te  0.454915  0.316160  0.500000
Mo2273  Mo  0.458703  0.322739  0.482988
Te4546  Te  0.454915  0.316160  0.465975
Te4547  Te  0.466279  0.322739  0.500000
Mo2274  Mo  0.470067  0.316160  0.482988
Te4548  Te  0.466279  0.322739  0.465975
Te4549  Te  0.454915  0.329318  0.500000
Mo2275  Mo  0.458703  0.335897  0.482988
Te4550  Te  0.454915  0.329318  0.465975
Te4551  Te  0.466279  0.335897  0.500000
Mo2276  Mo  0.470067  0.329318  0.482988
Te4552  Te  0.466279  0.335897  0.465975
Te4553  Te  0.454915  0.342476  0.500000
Mo2277  Mo  0.458703  0.349055  0.482988
Te4554  Te  0.454915  0.342476  0.465975
Te4555  Te  0.466279  0.349055  0.500000
Mo2278  Mo  0.470067  0.342476  0.482988
Te4556  Te  0.466279  0.349055  0.465975
Te4557  Te  0.454915  0.355634  0.500000
Mo2279  Mo  0.458703  0.362213  0.482988
Te4558  Te  0.454915  0.355634  0.465975
Te4559  Te  0.466279  0.362213  0.500000
Mo2280  Mo  0.470067  0.355634  0.482988
Te4560  Te  0.466279  0.362213  0.465975
Te4561  Te  0.477642  0.316160  0.500000
Mo2281  Mo  0.481430  0.322739  0.482988
Te4562  Te  0.477642  0.316160  0.465975
Te4563  Te  0.489006  0.322739  0.500000
Mo2282  Mo  0.492794  0.316160  0.482988
Te4564  Te  0.489006  0.322739  0.465975
Te4565  Te  0.477642  0.329318  0.500000
Mo2283  Mo  0.481430  0.335897  0.482988
Te4566  Te  0.477642  0.329318  0.465975
Te4567  Te  0.489006  0.335897  0.500000
Mo2284  Mo  0.492794  0.329318  0.482988
Te4568  Te  0.489006  0.335897  0.465975
Te4569  Te  0.477642  0.342476  0.500000
Mo2285  Mo  0.481430  0.349055  0.482988
Te4570  Te  0.477642  0.342476  0.465975
Te4571  Te  0.489006  0.349055  0.500000
Mo2286  Mo  0.492794  0.342476  0.482988
Te4572  Te  0.489006  0.349055  0.465975
Te4573  Te  0.477642  0.355634  0.500000
Mo2287  Mo  0.481430  0.362213  0.482988
Te4574  Te  0.477642  0.355634  0.465975
Te4575  Te  0.489006  0.362213  0.500000
Mo2288  Mo  0.492794  0.355634  0.482988
Te4576  Te  0.489006  0.362213  0.465975
Te4577  Te  0.500370  0.316160  0.500000
Mo2289  Mo  0.504158  0.322739  0.482988
Te4578  Te  0.500370  0.316160  0.465975
Te4579  Te  0.511733  0.322739  0.500000
Mo2290  Mo  0.515521  0.316160  0.482988
Te4580  Te  0.511733  0.322739  0.465975
Te4581  Te  0.500370  0.329318  0.500000
Mo2291  Mo  0.504158  0.335897  0.482988
Te4582  Te  0.500370  0.329318  0.465975
Te4583  Te  0.511733  0.335897  0.500000
Mo2292  Mo  0.515521  0.329318  0.482988
Te4584  Te  0.511733  0.335897  0.465975
Te4585  Te  0.500370  0.342476  0.500000
Mo2293  Mo  0.504158  0.349055  0.482988
Te4586  Te  0.500370  0.342476  0.465975
Te4587  Te  0.511733  0.349055  0.500000
Mo2294  Mo  0.515521  0.342476  0.482988
Te4588  Te  0.511733  0.349055  0.465975
Te4589  Te  0.500370  0.355634  0.500000
Mo2295  Mo  0.504158  0.362213  0.482988
Te4590  Te  0.500370  0.355634  0.465975
Te4591  Te  0.511733  0.362213  0.500000
Mo2296  Mo  0.515521  0.355634  0.482988
Te4592  Te  0.511733  0.362213  0.465975
Te4593  Te  0.523097  0.316160  0.500000
Mo2297  Mo  0.526885  0.322739  0.482988
Te4594  Te  0.523097  0.316160  0.465975
Te4595  Te  0.534461  0.322739  0.500000
Mo2298  Mo  0.538249  0.316160  0.482988
Te4596  Te  0.534461  0.322739  0.465975
Te4597  Te  0.523097  0.329318  0.500000
Mo2299  Mo  0.526885  0.335897  0.482988
Te4598  Te  0.523097  0.329318  0.465975
Te4599  Te  0.534461  0.335897  0.500000
Mo2300  Mo  0.538249  0.329318  0.482988
Te4600  Te  0.534461  0.335897  0.465975
Te4601  Te  0.523097  0.342476  0.500000
Mo2301  Mo  0.526885  0.349055  0.482988
Te4602  Te  0.523097  0.342476  0.465975
Te4603  Te  0.534461  0.349055  0.500000
Mo2302  Mo  0.538249  0.342476  0.482988
Te4604  Te  0.534461  0.349055  0.465975
Te4605  Te  0.523097  0.355634  0.500000
Mo2303  Mo  0.526885  0.362213  0.482988
Te4606  Te  0.523097  0.355634  0.465975
Te4607  Te  0.534461  0.362213  0.500000
Mo2304  Mo  0.538249  0.355634  0.482988
Te4608  Te  0.534461  0.362213  0.465975
Te4609  Te  0.545824  0.316160  0.500000
Mo2305  Mo  0.549612  0.322739  0.482988
Te4610  Te  0.545824  0.316160  0.465975
Te4611  Te  0.557188  0.322739  0.500000
Mo2306  Mo  0.560976  0.316160  0.482988
Te4612  Te  0.557188  0.322739  0.465975
Te4613  Te  0.545824  0.329318  0.500000
Mo2307  Mo  0.549612  0.335897  0.482988
Te4614  Te  0.545824  0.329318  0.465975
Te4615  Te  0.557188  0.335897  0.500000
Mo2308  Mo  0.560976  0.329318  0.482988
Te4616  Te  0.557188  0.335897  0.465975
Te4617  Te  0.545824  0.342476  0.500000
Mo2309  Mo  0.549612  0.349055  0.482988
Te4618  Te  0.545824  0.342476  0.465975
Te4619  Te  0.557188  0.349055  0.500000
Mo2310  Mo  0.560976  0.342476  0.482988
Te4620  Te  0.557188  0.349055  0.465975
Te4621  Te  0.545824  0.355634  0.500000
Mo2311  Mo  0.549612  0.362213  0.482988
Te4622  Te  0.545824  0.355634  0.465975
Te4623  Te  0.557188  0.362213  0.500000
Mo2312  Mo  0.560976  0.355634  0.482988
Te4624  Te  0.557188  0.362213  0.465975
Te4625  Te  0.568552  0.316160  0.500000
Mo2313  Mo  0.572339  0.322739  0.482988
Te4626  Te  0.568552  0.316160  0.465975
Te4627  Te  0.579915  0.322739  0.500000
Mo2314  Mo  0.583703  0.316160  0.482988
Te4628  Te  0.579915  0.322739  0.465975
Te4629  Te  0.568552  0.329318  0.500000
Mo2315  Mo  0.572339  0.335897  0.482988
Te4630  Te  0.568552  0.329318  0.465975
Te4631  Te  0.579915  0.335897  0.500000
Mo2316  Mo  0.583703  0.329318  0.482988
Te4632  Te  0.579915  0.335897  0.465975
Te4633  Te  0.568552  0.342476  0.500000
Mo2317  Mo  0.572339  0.349055  0.482988
Te4634  Te  0.568552  0.342476  0.465975
Te4635  Te  0.579915  0.349055  0.500000
Mo2318  Mo  0.583703  0.342476  0.482988
Te4636  Te  0.579915  0.349055  0.465975
Te4637  Te  0.568552  0.355634  0.500000
Mo2319  Mo  0.572339  0.362213  0.482988
Te4638  Te  0.568552  0.355634  0.465975
Te4639  Te  0.579915  0.362213  0.500000
Mo2320  Mo  0.583703  0.355634  0.482988
Te4640  Te  0.579915  0.362213  0.465975
Te4641  Te  0.591279  0.316160  0.500000
Mo2321  Mo  0.595067  0.322739  0.482988
Te4642  Te  0.591279  0.316160  0.465975
Te4643  Te  0.602642  0.322739  0.500000
Mo2322  Mo  0.606430  0.316160  0.482988
Te4644  Te  0.602642  0.322739  0.465975
Te4645  Te  0.591279  0.329318  0.500000
Mo2323  Mo  0.595067  0.335897  0.482988
Te4646  Te  0.591279  0.329318  0.465975
Te4647  Te  0.602642  0.335897  0.500000
Mo2324  Mo  0.606430  0.329318  0.482988
Te4648  Te  0.602642  0.335897  0.465975
Te4649  Te  0.591279  0.342476  0.500000
Mo2325  Mo  0.595067  0.349055  0.482988
Te4650  Te  0.591279  0.342476  0.465975
Te4651  Te  0.602642  0.349055  0.500000
Mo2326  Mo  0.606430  0.342476  0.482988
Te4652  Te  0.602642  0.349055  0.465975
Te4653  Te  0.591279  0.355634  0.500000
Mo2327  Mo  0.595067  0.362213  0.482988
Te4654  Te  0.591279  0.355634  0.465975
Te4655  Te  0.602642  0.362213  0.500000
Mo2328  Mo  0.606430  0.355634  0.482988
Te4656  Te  0.602642  0.362213  0.465975
Te4657  Te  0.614006  0.316160  0.500000
Mo2329  Mo  0.617794  0.322739  0.482988
Te4658  Te  0.614006  0.316160  0.465975
Te4659  Te  0.625370  0.322739  0.500000
Mo2330  Mo  0.629158  0.316160  0.482988
Te4660  Te  0.625370  0.322739  0.465975
Te4661  Te  0.614006  0.329318  0.500000
Mo2331  Mo  0.617794  0.335897  0.482988
Te4662  Te  0.614006  0.329318  0.465975
Te4663  Te  0.625370  0.335897  0.500000
Mo2332  Mo  0.629158  0.329318  0.482988
Te4664  Te  0.625370  0.335897  0.465975
Te4665  Te  0.614006  0.342476  0.500000
Mo2333  Mo  0.617794  0.349055  0.482988
Te4666  Te  0.614006  0.342476  0.465975
Te4667  Te  0.625370  0.349055  0.500000
Mo2334  Mo  0.629158  0.342476  0.482988
Te4668  Te  0.625370  0.349055  0.465975
Te4669  Te  0.614006  0.355634  0.500000
Mo2335  Mo  0.617794  0.362213  0.482988
Te4670  Te  0.614006  0.355634  0.465975
Te4671  Te  0.625370  0.362213  0.500000
Mo2336  Mo  0.629158  0.355634  0.482988
Te4672  Te  0.625370  0.362213  0.465975
Te4673  Te  0.636733  0.316160  0.500000
Mo2337  Mo  0.640521  0.322739  0.482988
Te4674  Te  0.636733  0.316160  0.465975
Te4675  Te  0.648097  0.322739  0.500000
Mo2338  Mo  0.651885  0.316160  0.482988
Te4676  Te  0.648097  0.322739  0.465975
Te4677  Te  0.636733  0.329318  0.500000
Mo2339  Mo  0.640521  0.335897  0.482988
Te4678  Te  0.636733  0.329318  0.465975
Te4679  Te  0.648097  0.335897  0.500000
Mo2340  Mo  0.651885  0.329318  0.482988
Te4680  Te  0.648097  0.335897  0.465975
Te4681  Te  0.636733  0.342476  0.500000
Mo2341  Mo  0.640521  0.349055  0.482988
Te4682  Te  0.636733  0.342476  0.465975
Te4683  Te  0.648097  0.349055  0.500000
Mo2342  Mo  0.651885  0.342476  0.482988
Te4684  Te  0.648097  0.349055  0.465975
Te4685  Te  0.636733  0.355634  0.500000
Mo2343  Mo  0.640521  0.362213  0.482988
Te4686  Te  0.636733  0.355634  0.465975
Te4687  Te  0.648097  0.362213  0.500000
Mo2344  Mo  0.651885  0.355634  0.482988
Te4688  Te  0.648097  0.362213  0.465975
Te4689  Te  0.659461  0.316160  0.500000
Mo2345  Mo  0.663248  0.322739  0.482988
Te4690  Te  0.659461  0.316160  0.465975
Te4691  Te  0.670824  0.322739  0.500000
Mo2346  Mo  0.674612  0.316160  0.482988
Te4692  Te  0.670824  0.322739  0.465975
Te4693  Te  0.659461  0.329318  0.500000
Mo2347  Mo  0.663248  0.335897  0.482988
Te4694  Te  0.659461  0.329318  0.465975
Te4695  Te  0.670824  0.335897  0.500000
Mo2348  Mo  0.674612  0.329318  0.482988
Te4696  Te  0.670824  0.335897  0.465975
Te4697  Te  0.659461  0.342476  0.500000
Mo2349  Mo  0.663248  0.349055  0.482988
Te4698  Te  0.659461  0.342476  0.465975
Te4699  Te  0.670824  0.349055  0.500000
Mo2350  Mo  0.674612  0.342476  0.482988
Te4700  Te  0.670824  0.349055  0.465975
Te4701  Te  0.659461  0.355634  0.500000
Mo2351  Mo  0.663248  0.362213  0.482988
Te4702  Te  0.659461  0.355634  0.465975
Te4703  Te  0.670824  0.362213  0.500000
Mo2352  Mo  0.674612  0.355634  0.482988
Te4704  Te  0.670824  0.362213  0.465975
Te4705  Te  0.682188  0.316160  0.500000
Mo2353  Mo  0.685976  0.322739  0.482988
Te4706  Te  0.682188  0.316160  0.465975
Te4707  Te  0.693551  0.322739  0.500000
Mo2354  Mo  0.697339  0.316160  0.482988
Te4708  Te  0.693551  0.322739  0.465975
Te4709  Te  0.682188  0.329318  0.500000
Mo2355  Mo  0.685976  0.335897  0.482988
Te4710  Te  0.682188  0.329318  0.465975
Te4711  Te  0.693551  0.335897  0.500000
Mo2356  Mo  0.697339  0.329318  0.482988
Te4712  Te  0.693551  0.335897  0.465975
Te4713  Te  0.682188  0.342476  0.500000
Mo2357  Mo  0.685976  0.349055  0.482988
Te4714  Te  0.682188  0.342476  0.465975
Te4715  Te  0.693551  0.349055  0.500000
Mo2358  Mo  0.697339  0.342476  0.482988
Te4716  Te  0.693551  0.349055  0.465975
Te4717  Te  0.682188  0.355634  0.500000
Mo2359  Mo  0.685976  0.362213  0.482988
Te4718  Te  0.682188  0.355634  0.465975
Te4719  Te  0.693551  0.362213  0.500000
Mo2360  Mo  0.697339  0.355634  0.482988
Te4720  Te  0.693551  0.362213  0.465975
Te4721  Te  0.704915  0.316160  0.500000
Mo2361  Mo  0.708703  0.322739  0.482988
Te4722  Te  0.704915  0.316160  0.465975
Te4723  Te  0.716279  0.322739  0.500000
Mo2362  Mo  0.720067  0.316160  0.482988
Te4724  Te  0.716279  0.322739  0.465975
Te4725  Te  0.704915  0.329318  0.500000
Mo2363  Mo  0.708703  0.335897  0.482988
Te4726  Te  0.704915  0.329318  0.465975
Te4727  Te  0.716279  0.335897  0.500000
Mo2364  Mo  0.720067  0.329318  0.482988
Te4728  Te  0.716279  0.335897  0.465975
Te4729  Te  0.704915  0.342476  0.500000
Mo2365  Mo  0.708703  0.349055  0.482988
Te4730  Te  0.704915  0.342476  0.465975
Te4731  Te  0.716279  0.349055  0.500000
Mo2366  Mo  0.720067  0.342476  0.482988
Te4732  Te  0.716279  0.349055  0.465975
Te4733  Te  0.704915  0.355634  0.500000
Mo2367  Mo  0.708703  0.362213  0.482988
Te4734  Te  0.704915  0.355634  0.465975
Te4735  Te  0.716279  0.362213  0.500000
Mo2368  Mo  0.720067  0.355634  0.482988
Te4736  Te  0.716279  0.362213  0.465975
Te4737  Te  0.727642  0.316160  0.500000
Mo2369  Mo  0.731430  0.322739  0.482988
Te4738  Te  0.727642  0.316160  0.465975
Te4739  Te  0.739006  0.322739  0.500000
Mo2370  Mo  0.742794  0.316160  0.482988
Te4740  Te  0.739006  0.322739  0.465975
Te4741  Te  0.727642  0.329318  0.500000
Mo2371  Mo  0.731430  0.335897  0.482988
Te4742  Te  0.727642  0.329318  0.465975
Te4743  Te  0.739006  0.335897  0.500000
Mo2372  Mo  0.742794  0.329318  0.482988
Te4744  Te  0.739006  0.335897  0.465975
Te4745  Te  0.727642  0.342476  0.500000
Mo2373  Mo  0.731430  0.349055  0.482988
Te4746  Te  0.727642  0.342476  0.465975
Te4747  Te  0.739006  0.349055  0.500000
Mo2374  Mo  0.742794  0.342476  0.482988
Te4748  Te  0.739006  0.349055  0.465975
Te4749  Te  0.727642  0.355634  0.500000
Mo2375  Mo  0.731430  0.362213  0.482988
Te4750  Te  0.727642  0.355634  0.465975
Te4751  Te  0.739006  0.362213  0.500000
Mo2376  Mo  0.742794  0.355634  0.482988
Te4752  Te  0.739006  0.362213  0.465975
Te4753  Te  0.750370  0.316160  0.500000
Mo2377  Mo  0.754158  0.322739  0.482988
Te4754  Te  0.750370  0.316160  0.465975
Te4755  Te  0.761733  0.322739  0.500000
Mo2378  Mo  0.765521  0.316160  0.482988
Te4756  Te  0.761733  0.322739  0.465975
Te4757  Te  0.750370  0.329318  0.500000
Mo2379  Mo  0.754158  0.335897  0.482988
Te4758  Te  0.750370  0.329318  0.465975
Te4759  Te  0.761733  0.335897  0.500000
Mo2380  Mo  0.765521  0.329318  0.482988
Te4760  Te  0.761733  0.335897  0.465975
Te4761  Te  0.750370  0.342476  0.500000
Mo2381  Mo  0.754158  0.349055  0.482988
Te4762  Te  0.750370  0.342476  0.465975
Te4763  Te  0.761733  0.349055  0.500000
Mo2382  Mo  0.765521  0.342476  0.482988
Te4764  Te  0.761733  0.349055  0.465975
Te4765  Te  0.750370  0.355634  0.500000
Mo2383  Mo  0.754158  0.362213  0.482988
Te4766  Te  0.750370  0.355634  0.465975
Te4767  Te  0.761733  0.362213  0.500000
Mo2384  Mo  0.765521  0.355634  0.482988
Te4768  Te  0.761733  0.362213  0.465975
Te4769  Te  0.773097  0.316160  0.500000
Mo2385  Mo  0.776885  0.322739  0.482988
Te4770  Te  0.773097  0.316160  0.465975
Te4771  Te  0.784461  0.322739  0.500000
Mo2386  Mo  0.788248  0.316160  0.482988
Te4772  Te  0.784461  0.322739  0.465975
Te4773  Te  0.773097  0.329318  0.500000
Mo2387  Mo  0.776885  0.335897  0.482988
Te4774  Te  0.773097  0.329318  0.465975
Te4775  Te  0.784461  0.335897  0.500000
Mo2388  Mo  0.788248  0.329318  0.482988
Te4776  Te  0.784461  0.335897  0.465975
Te4777  Te  0.773097  0.342476  0.500000
Mo2389  Mo  0.776885  0.349055  0.482988
Te4778  Te  0.773097  0.342476  0.465975
Te4779  Te  0.784461  0.349055  0.500000
Mo2390  Mo  0.788248  0.342476  0.482988
Te4780  Te  0.784461  0.349055  0.465975
Te4781  Te  0.773097  0.355634  0.500000
Mo2391  Mo  0.776885  0.362213  0.482988
Te4782  Te  0.773097  0.355634  0.465975
Te4783  Te  0.784461  0.362213  0.500000
Mo2392  Mo  0.788248  0.355634  0.482988
Te4784  Te  0.784461  0.362213  0.465975
Te4785  Te  0.795824  0.316160  0.500000
Mo2393  Mo  0.799612  0.322739  0.482988
Te4786  Te  0.795824  0.316160  0.465975
Te4787  Te  0.807188  0.322739  0.500000
Mo2394  Mo  0.810976  0.316160  0.482988
Te4788  Te  0.807188  0.322739  0.465975
Te4789  Te  0.795824  0.329318  0.500000
Mo2395  Mo  0.799612  0.335897  0.482988
Te4790  Te  0.795824  0.329318  0.465975
Te4791  Te  0.807188  0.335897  0.500000
Mo2396  Mo  0.810976  0.329318  0.482988
Te4792  Te  0.807188  0.335897  0.465975
Te4793  Te  0.795824  0.342476  0.500000
Mo2397  Mo  0.799612  0.349055  0.482988
Te4794  Te  0.795824  0.342476  0.465975
Te4795  Te  0.807188  0.349055  0.500000
Mo2398  Mo  0.810976  0.342476  0.482988
Te4796  Te  0.807188  0.349055  0.465975
Te4797  Te  0.795824  0.355634  0.500000
Mo2399  Mo  0.799612  0.362213  0.482988
Te4798  Te  0.795824  0.355634  0.465975
Te4799  Te  0.807188  0.362213  0.500000
Mo2400  Mo  0.810976  0.355634  0.482988
Te4800  Te  0.807188  0.362213  0.465975
Te4801  Te  0.818551  0.316160  0.500000
Mo2401  Mo  0.822339  0.322739  0.482988
Te4802  Te  0.818551  0.316160  0.465975
Te4803  Te  0.829915  0.322739  0.500000
Mo2402  Mo  0.833703  0.316160  0.482988
Te4804  Te  0.829915  0.322739  0.465975
Te4805  Te  0.818551  0.329318  0.500000
Mo2403  Mo  0.822339  0.335897  0.482988
Te4806  Te  0.818551  0.329318  0.465975
Te4807  Te  0.829915  0.335897  0.500000
Mo2404  Mo  0.833703  0.329318  0.482988
Te4808  Te  0.829915  0.335897  0.465975
Te4809  Te  0.818551  0.342476  0.500000
Mo2405  Mo  0.822339  0.349055  0.482988
Te4810  Te  0.818551  0.342476  0.465975
Te4811  Te  0.829915  0.349055  0.500000
Mo2406  Mo  0.833703  0.342476  0.482988
Te4812  Te  0.829915  0.349055  0.465975
Te4813  Te  0.818551  0.355634  0.500000
Mo2407  Mo  0.822339  0.362213  0.482988
Te4814  Te  0.818551  0.355634  0.465975
Te4815  Te  0.829915  0.362213  0.500000
Mo2408  Mo  0.833703  0.355634  0.482988
Te4816  Te  0.829915  0.362213  0.465975
Te4817  Te  0.841279  0.316160  0.500000
Mo2409  Mo  0.845067  0.322739  0.482988
Te4818  Te  0.841279  0.316160  0.465975
Te4819  Te  0.852642  0.322739  0.500000
Mo2410  Mo  0.856430  0.316160  0.482988
Te4820  Te  0.852642  0.322739  0.465975
Te4821  Te  0.841279  0.329318  0.500000
Mo2411  Mo  0.845067  0.335897  0.482988
Te4822  Te  0.841279  0.329318  0.465975
Te4823  Te  0.852642  0.335897  0.500000
Mo2412  Mo  0.856430  0.329318  0.482988
Te4824  Te  0.852642  0.335897  0.465975
Te4825  Te  0.841279  0.342476  0.500000
Mo2413  Mo  0.845067  0.349055  0.482988
Te4826  Te  0.841279  0.342476  0.465975
Te4827  Te  0.852642  0.349055  0.500000
Mo2414  Mo  0.856430  0.342476  0.482988
Te4828  Te  0.852642  0.349055  0.465975
Te4829  Te  0.841279  0.355634  0.500000
Mo2415  Mo  0.845067  0.362213  0.482988
Te4830  Te  0.841279  0.355634  0.465975
Te4831  Te  0.852642  0.362213  0.500000
Mo2416  Mo  0.856430  0.355634  0.482988
Te4832  Te  0.852642  0.362213  0.465975
Te4833  Te  0.864006  0.316160  0.500000
Mo2417  Mo  0.867794  0.322739  0.482988
Te4834  Te  0.864006  0.316160  0.465975
Te4835  Te  0.875370  0.322739  0.500000
Mo2418  Mo  0.879158  0.316160  0.482988
Te4836  Te  0.875370  0.322739  0.465975
Te4837  Te  0.864006  0.329318  0.500000
Mo2419  Mo  0.867794  0.335897  0.482988
Te4838  Te  0.864006  0.329318  0.465975
Te4839  Te  0.875370  0.335897  0.500000
Mo2420  Mo  0.879158  0.329318  0.482988
Te4840  Te  0.875370  0.335897  0.465975
Te4841  Te  0.864006  0.342476  0.500000
Mo2421  Mo  0.867794  0.349055  0.482988
Te4842  Te  0.864006  0.342476  0.465975
Te4843  Te  0.875370  0.349055  0.500000
Mo2422  Mo  0.879158  0.342476  0.482988
Te4844  Te  0.875370  0.349055  0.465975
Te4845  Te  0.864006  0.355634  0.500000
Mo2423  Mo  0.867794  0.362213  0.482988
Te4846  Te  0.864006  0.355634  0.465975
Te4847  Te  0.875370  0.362213  0.500000
Mo2424  Mo  0.879158  0.355634  0.482988
Te4848  Te  0.875370  0.362213  0.465975
Te4849  Te  0.886733  0.316160  0.500000
Mo2425  Mo  0.890521  0.322739  0.482988
Te4850  Te  0.886733  0.316160  0.465975
Te4851  Te  0.898097  0.322739  0.500000
Mo2426  Mo  0.901885  0.316160  0.482988
Te4852  Te  0.898097  0.322739  0.465975
Te4853  Te  0.886733  0.329318  0.500000
Mo2427  Mo  0.890521  0.335897  0.482988
Te4854  Te  0.886733  0.329318  0.465975
Te4855  Te  0.898097  0.335897  0.500000
Mo2428  Mo  0.901885  0.329318  0.482988
Te4856  Te  0.898097  0.335897  0.465975
Te4857  Te  0.886733  0.342476  0.500000
Mo2429  Mo  0.890521  0.349055  0.482988
Te4858  Te  0.886733  0.342476  0.465975
Te4859  Te  0.898097  0.349055  0.500000
Mo2430  Mo  0.901885  0.342476  0.482988
Te4860  Te  0.898097  0.349055  0.465975
Te4861  Te  0.886733  0.355634  0.500000
Mo2431  Mo  0.890521  0.362213  0.482988
Te4862  Te  0.886733  0.355634  0.465975
Te4863  Te  0.898097  0.362213  0.500000
Mo2432  Mo  0.901885  0.355634  0.482988
Te4864  Te  0.898097  0.362213  0.465975
Te4865  Te  0.909461  0.316160  0.500000
Mo2433  Mo  0.913248  0.322739  0.482988
Te4866  Te  0.909461  0.316160  0.465975
Te4867  Te  0.920824  0.322739  0.500000
Mo2434  Mo  0.924612  0.316160  0.482988
Te4868  Te  0.920824  0.322739  0.465975
Te4869  Te  0.909461  0.329318  0.500000
Mo2435  Mo  0.913248  0.335897  0.482988
Te4870  Te  0.909461  0.329318  0.465975
Te4871  Te  0.920824  0.335897  0.500000
Mo2436  Mo  0.924612  0.329318  0.482988
Te4872  Te  0.920824  0.335897  0.465975
Te4873  Te  0.909461  0.342476  0.500000
Mo2437  Mo  0.913248  0.349055  0.482988
Te4874  Te  0.909461  0.342476  0.465975
Te4875  Te  0.920824  0.349055  0.500000
Mo2438  Mo  0.924612  0.342476  0.482988
Te4876  Te  0.920824  0.349055  0.465975
Te4877  Te  0.909461  0.355634  0.500000
Mo2439  Mo  0.913248  0.362213  0.482988
Te4878  Te  0.909461  0.355634  0.465975
Te4879  Te  0.920824  0.362213  0.500000
Mo2440  Mo  0.924612  0.355634  0.482988
Te4880  Te  0.920824  0.362213  0.465975
Te4881  Te  0.932188  0.316160  0.500000
Mo2441  Mo  0.935976  0.322739  0.482988
Te4882  Te  0.932188  0.316160  0.465975
Te4883  Te  0.943552  0.322739  0.500000
Mo2442  Mo  0.947339  0.316160  0.482988
Te4884  Te  0.943552  0.322739  0.465975
Te4885  Te  0.932188  0.329318  0.500000
Mo2443  Mo  0.935976  0.335897  0.482988
Te4886  Te  0.932188  0.329318  0.465975
Te4887  Te  0.943552  0.335897  0.500000
Mo2444  Mo  0.947339  0.329318  0.482988
Te4888  Te  0.943552  0.335897  0.465975
Te4889  Te  0.932188  0.342476  0.500000
Mo2445  Mo  0.935976  0.349055  0.482988
Te4890  Te  0.932188  0.342476  0.465975
Te4891  Te  0.943552  0.349055  0.500000
Mo2446  Mo  0.947339  0.342476  0.482988
Te4892  Te  0.943552  0.349055  0.465975
Te4893  Te  0.932188  0.355634  0.500000
Mo2447  Mo  0.935976  0.362213  0.482988
Te4894  Te  0.932188  0.355634  0.465975
Te4895  Te  0.943552  0.362213  0.500000
Mo2448  Mo  0.947339  0.355634  0.482988
Te4896  Te  0.943552  0.362213  0.465975
Te4897  Te  0.954915  0.316160  0.500000
Mo2449  Mo  0.958703  0.322739  0.482988
Te4898  Te  0.954915  0.316160  0.465975
Te4899  Te  0.966279  0.322739  0.500000
Mo2450  Mo  0.970067  0.316160  0.482988
Te4900  Te  0.966279  0.322739  0.465975
Te4901  Te  0.954915  0.329318  0.500000
Mo2451  Mo  0.958703  0.335897  0.482988
Te4902  Te  0.954915  0.329318  0.465975
Te4903  Te  0.966279  0.335897  0.500000
Mo2452  Mo  0.970067  0.329318  0.482988
Te4904  Te  0.966279  0.335897  0.465975
Te4905  Te  0.954915  0.342476  0.500000
Mo2453  Mo  0.958703  0.349055  0.482988
Te4906  Te  0.954915  0.342476  0.465975
Te4907  Te  0.966279  0.349055  0.500000
Mo2454  Mo  0.970067  0.342476  0.482988
Te4908  Te  0.966279  0.349055  0.465975
Te4909  Te  0.954915  0.355634  0.500000
Mo2455  Mo  0.958703  0.362213  0.482988
Te4910  Te  0.954915  0.355634  0.465975
Te4911  Te  0.966279  0.362213  0.500000
Mo2456  Mo  0.970067  0.355634  0.482988
Te4912  Te  0.966279  0.362213  0.465975
Te4913  Te  0.977642  0.316160  0.500000
Mo2457  Mo  0.981430  0.322739  0.482988
Te4914  Te  0.977642  0.316160  0.465975
Te4915  Te  0.989006  0.322739  0.500000
Mo2458  Mo  0.992794  0.316160  0.482988
Te4916  Te  0.989006  0.322739  0.465975
Te4917  Te  0.977642  0.329318  0.500000
Mo2459  Mo  0.981430  0.335897  0.482988
Te4918  Te  0.977642  0.329318  0.465975
Te4919  Te  0.989006  0.335897  0.500000
Mo2460  Mo  0.992794  0.329318  0.482988
Te4920  Te  0.989006  0.335897  0.465975
Te4921  Te  0.977642  0.342476  0.500000
Mo2461  Mo  0.981430  0.349055  0.482988
Te4922  Te  0.977642  0.342476  0.465975
Te4923  Te  0.989006  0.349055  0.500000
Mo2462  Mo  0.992794  0.342476  0.482988
Te4924  Te  0.989006  0.349055  0.465975
Te4925  Te  0.977642  0.355634  0.500000
Mo2463  Mo  0.981430  0.362213  0.482988
Te4926  Te  0.977642  0.355634  0.465975
Te4927  Te  0.989006  0.362213  0.500000
Mo2464  Mo  0.992794  0.355634  0.482988
Te4928  Te  0.989006  0.362213  0.465975
Te4929  Te  0.000370  0.368792  0.500000
Mo2465  Mo  0.004158  0.375371  0.482988
Te4930  Te  0.000370  0.368792  0.465975
Te4931  Te  0.011733  0.375371  0.500000
Mo2466  Mo  0.015521  0.368792  0.482988
Te4932  Te  0.011733  0.375371  0.465975
Te4933  Te  0.000370  0.381950  0.500000
Mo2467  Mo  0.004158  0.388529  0.482988
Te4934  Te  0.000370  0.381950  0.465975
Te4935  Te  0.011733  0.388529  0.500000
Mo2468  Mo  0.015521  0.381950  0.482988
Te4936  Te  0.011733  0.388529  0.465975
Te4937  Te  0.000370  0.395107  0.500000
Mo2469  Mo  0.004158  0.401686  0.482988
Te4938  Te  0.000370  0.395107  0.465975
Te4939  Te  0.011733  0.401686  0.500000
Mo2470  Mo  0.015521  0.395107  0.482988
Te4940  Te  0.011733  0.401686  0.465975
Te4941  Te  0.000370  0.408265  0.500000
Mo2471  Mo  0.004158  0.414844  0.482988
Te4942  Te  0.000370  0.408265  0.465975
Te4943  Te  0.011733  0.414844  0.500000
Mo2472  Mo  0.015521  0.408265  0.482988
Te4944  Te  0.011733  0.414844  0.465975
Te4945  Te  0.023097  0.368792  0.500000
Mo2473  Mo  0.026885  0.375371  0.482988
Te4946  Te  0.023097  0.368792  0.465975
Te4947  Te  0.034461  0.375371  0.500000
Mo2474  Mo  0.038249  0.368792  0.482988
Te4948  Te  0.034461  0.375371  0.465975
Te4949  Te  0.023097  0.381950  0.500000
Mo2475  Mo  0.026885  0.388529  0.482988
Te4950  Te  0.023097  0.381950  0.465975
Te4951  Te  0.034461  0.388529  0.500000
Mo2476  Mo  0.038249  0.381950  0.482988
Te4952  Te  0.034461  0.388529  0.465975
Te4953  Te  0.023097  0.395107  0.500000
Mo2477  Mo  0.026885  0.401686  0.482988
Te4954  Te  0.023097  0.395107  0.465975
Te4955  Te  0.034461  0.401686  0.500000
Mo2478  Mo  0.038249  0.395107  0.482988
Te4956  Te  0.034461  0.401686  0.465975
Te4957  Te  0.023097  0.408265  0.500000
Mo2479  Mo  0.026885  0.414844  0.482988
Te4958  Te  0.023097  0.408265  0.465975
Te4959  Te  0.034461  0.414844  0.500000
Mo2480  Mo  0.038249  0.408265  0.482988
Te4960  Te  0.034461  0.414844  0.465975
Te4961  Te  0.045824  0.368792  0.500000
Mo2481  Mo  0.049612  0.375371  0.482988
Te4962  Te  0.045824  0.368792  0.465975
Te4963  Te  0.057188  0.375371  0.500000
Mo2482  Mo  0.060976  0.368792  0.482988
Te4964  Te  0.057188  0.375371  0.465975
Te4965  Te  0.045824  0.381950  0.500000
Mo2483  Mo  0.049612  0.388529  0.482988
Te4966  Te  0.045824  0.381950  0.465975
Te4967  Te  0.057188  0.388529  0.500000
Mo2484  Mo  0.060976  0.381950  0.482988
Te4968  Te  0.057188  0.388529  0.465975
Te4969  Te  0.045824  0.395107  0.500000
Mo2485  Mo  0.049612  0.401686  0.482988
Te4970  Te  0.045824  0.395107  0.465975
Te4971  Te  0.057188  0.401686  0.500000
Mo2486  Mo  0.060976  0.395107  0.482988
Te4972  Te  0.057188  0.401686  0.465975
Te4973  Te  0.045824  0.408265  0.500000
Mo2487  Mo  0.049612  0.414844  0.482988
Te4974  Te  0.045824  0.408265  0.465975
Te4975  Te  0.057188  0.414844  0.500000
Mo2488  Mo  0.060976  0.408265  0.482988
Te4976  Te  0.057188  0.414844  0.465975
Te4977  Te  0.068552  0.368792  0.500000
Mo2489  Mo  0.072339  0.375371  0.482988
Te4978  Te  0.068552  0.368792  0.465975
Te4979  Te  0.079915  0.375371  0.500000
Mo2490  Mo  0.083703  0.368792  0.482988
Te4980  Te  0.079915  0.375371  0.465975
Te4981  Te  0.068552  0.381950  0.500000
Mo2491  Mo  0.072339  0.388529  0.482988
Te4982  Te  0.068552  0.381950  0.465975
Te4983  Te  0.079915  0.388529  0.500000
Mo2492  Mo  0.083703  0.381950  0.482988
Te4984  Te  0.079915  0.388529  0.465975
Te4985  Te  0.068552  0.395107  0.500000
Mo2493  Mo  0.072339  0.401686  0.482988
Te4986  Te  0.068552  0.395107  0.465975
Te4987  Te  0.079915  0.401686  0.500000
Mo2494  Mo  0.083703  0.395107  0.482988
Te4988  Te  0.079915  0.401686  0.465975
Te4989  Te  0.068552  0.408265  0.500000
Mo2495  Mo  0.072339  0.414844  0.482988
Te4990  Te  0.068552  0.408265  0.465975
Te4991  Te  0.079915  0.414844  0.500000
Mo2496  Mo  0.083703  0.408265  0.482988
Te4992  Te  0.079915  0.414844  0.465975
Te4993  Te  0.091279  0.368792  0.500000
Mo2497  Mo  0.095067  0.375371  0.482988
Te4994  Te  0.091279  0.368792  0.465975
Te4995  Te  0.102642  0.375371  0.500000
Mo2498  Mo  0.106430  0.368792  0.482988
Te4996  Te  0.102642  0.375371  0.465975
Te4997  Te  0.091279  0.381950  0.500000
Mo2499  Mo  0.095067  0.388529  0.482988
Te4998  Te  0.091279  0.381950  0.465975
Te4999  Te  0.102642  0.388529  0.500000
Mo2500  Mo  0.106430  0.381950  0.482988
Te5000  Te  0.102642  0.388529  0.465975
Te5001  Te  0.091279  0.395107  0.500000
Mo2501  Mo  0.095067  0.401686  0.482988
Te5002  Te  0.091279  0.395107  0.465975
Te5003  Te  0.102642  0.401686  0.500000
Mo2502  Mo  0.106430  0.395107  0.482988
Te5004  Te  0.102642  0.401686  0.465975
Te5005  Te  0.091279  0.408265  0.500000
Mo2503  Mo  0.095067  0.414844  0.482988
Te5006  Te  0.091279  0.408265  0.465975
Te5007  Te  0.102642  0.414844  0.500000
Mo2504  Mo  0.106430  0.408265  0.482988
Te5008  Te  0.102642  0.414844  0.465975
Te5009  Te  0.114006  0.368792  0.500000
Mo2505  Mo  0.117794  0.375371  0.482988
Te5010  Te  0.114006  0.368792  0.465975
Te5011  Te  0.125370  0.375371  0.500000
Mo2506  Mo  0.129158  0.368792  0.482988
Te5012  Te  0.125370  0.375371  0.465975
Te5013  Te  0.114006  0.381950  0.500000
Mo2507  Mo  0.117794  0.388529  0.482988
Te5014  Te  0.114006  0.381950  0.465975
Te5015  Te  0.125370  0.388529  0.500000
Mo2508  Mo  0.129158  0.381950  0.482988
Te5016  Te  0.125370  0.388529  0.465975
Te5017  Te  0.114006  0.395107  0.500000
Mo2509  Mo  0.117794  0.401686  0.482988
Te5018  Te  0.114006  0.395107  0.465975
Te5019  Te  0.125370  0.401686  0.500000
Mo2510  Mo  0.129158  0.395107  0.482988
Te5020  Te  0.125370  0.401686  0.465975
Te5021  Te  0.114006  0.408265  0.500000
Mo2511  Mo  0.117794  0.414844  0.482988
Te5022  Te  0.114006  0.408265  0.465975
Te5023  Te  0.125370  0.414844  0.500000
Mo2512  Mo  0.129158  0.408265  0.482988
Te5024  Te  0.125370  0.414844  0.465975
Te5025  Te  0.136733  0.368792  0.500000
Mo2513  Mo  0.140521  0.375371  0.482988
Te5026  Te  0.136733  0.368792  0.465975
Te5027  Te  0.148097  0.375371  0.500000
Mo2514  Mo  0.151885  0.368792  0.482988
Te5028  Te  0.148097  0.375371  0.465975
Te5029  Te  0.136733  0.381950  0.500000
Mo2515  Mo  0.140521  0.388529  0.482988
Te5030  Te  0.136733  0.381950  0.465975
Te5031  Te  0.148097  0.388529  0.500000
Mo2516  Mo  0.151885  0.381950  0.482988
Te5032  Te  0.148097  0.388529  0.465975
Te5033  Te  0.136733  0.395107  0.500000
Mo2517  Mo  0.140521  0.401686  0.482988
Te5034  Te  0.136733  0.395107  0.465975
Te5035  Te  0.148097  0.401686  0.500000
Mo2518  Mo  0.151885  0.395107  0.482988
Te5036  Te  0.148097  0.401686  0.465975
Te5037  Te  0.136733  0.408265  0.500000
Mo2519  Mo  0.140521  0.414844  0.482988
Te5038  Te  0.136733  0.408265  0.465975
Te5039  Te  0.148097  0.414844  0.500000
Mo2520  Mo  0.151885  0.408265  0.482988
Te5040  Te  0.148097  0.414844  0.465975
Te5041  Te  0.159461  0.368792  0.500000
Mo2521  Mo  0.163248  0.375371  0.482988
Te5042  Te  0.159461  0.368792  0.465975
Te5043  Te  0.170824  0.375371  0.500000
Mo2522  Mo  0.174612  0.368792  0.482988
Te5044  Te  0.170824  0.375371  0.465975
Te5045  Te  0.159461  0.381950  0.500000
Mo2523  Mo  0.163248  0.388529  0.482988
Te5046  Te  0.159461  0.381950  0.465975
Te5047  Te  0.170824  0.388529  0.500000
Mo2524  Mo  0.174612  0.381950  0.482988
Te5048  Te  0.170824  0.388529  0.465975
Te5049  Te  0.159461  0.395107  0.500000
Mo2525  Mo  0.163248  0.401686  0.482988
Te5050  Te  0.159461  0.395107  0.465975
Te5051  Te  0.170824  0.401686  0.500000
Mo2526  Mo  0.174612  0.395107  0.482988
Te5052  Te  0.170824  0.401686  0.465975
Te5053  Te  0.159461  0.408265  0.500000
Mo2527  Mo  0.163248  0.414844  0.482988
Te5054  Te  0.159461  0.408265  0.465975
Te5055  Te  0.170824  0.414844  0.500000
Mo2528  Mo  0.174612  0.408265  0.482988
Te5056  Te  0.170824  0.414844  0.465975
Te5057  Te  0.182188  0.368792  0.500000
Mo2529  Mo  0.185976  0.375371  0.482988
Te5058  Te  0.182188  0.368792  0.465975
Te5059  Te  0.193551  0.375371  0.500000
Mo2530  Mo  0.197339  0.368792  0.482988
Te5060  Te  0.193551  0.375371  0.465975
Te5061  Te  0.182188  0.381950  0.500000
Mo2531  Mo  0.185976  0.388529  0.482988
Te5062  Te  0.182188  0.381950  0.465975
Te5063  Te  0.193551  0.388529  0.500000
Mo2532  Mo  0.197339  0.381950  0.482988
Te5064  Te  0.193551  0.388529  0.465975
Te5065  Te  0.182188  0.395107  0.500000
Mo2533  Mo  0.185976  0.401686  0.482988
Te5066  Te  0.182188  0.395107  0.465975
Te5067  Te  0.193551  0.401686  0.500000
Mo2534  Mo  0.197339  0.395107  0.482988
Te5068  Te  0.193551  0.401686  0.465975
Te5069  Te  0.182188  0.408265  0.500000
Mo2535  Mo  0.185976  0.414844  0.482988
Te5070  Te  0.182188  0.408265  0.465975
Te5071  Te  0.193551  0.414844  0.500000
Mo2536  Mo  0.197339  0.408265  0.482988
Te5072  Te  0.193551  0.414844  0.465975
Te5073  Te  0.204915  0.368792  0.500000
Mo2537  Mo  0.208703  0.375371  0.482988
Te5074  Te  0.204915  0.368792  0.465975
Te5075  Te  0.216279  0.375371  0.500000
Mo2538  Mo  0.220067  0.368792  0.482988
Te5076  Te  0.216279  0.375371  0.465975
Te5077  Te  0.204915  0.381950  0.500000
Mo2539  Mo  0.208703  0.388529  0.482988
Te5078  Te  0.204915  0.381950  0.465975
Te5079  Te  0.216279  0.388529  0.500000
Mo2540  Mo  0.220067  0.381950  0.482988
Te5080  Te  0.216279  0.388529  0.465975
Te5081  Te  0.204915  0.395107  0.500000
Mo2541  Mo  0.208703  0.401686  0.482988
Te5082  Te  0.204915  0.395107  0.465975
Te5083  Te  0.216279  0.401686  0.500000
Mo2542  Mo  0.220067  0.395107  0.482988
Te5084  Te  0.216279  0.401686  0.465975
Te5085  Te  0.204915  0.408265  0.500000
Mo2543  Mo  0.208703  0.414844  0.482988
Te5086  Te  0.204915  0.408265  0.465975
Te5087  Te  0.216279  0.414844  0.500000
Mo2544  Mo  0.220067  0.408265  0.482988
Te5088  Te  0.216279  0.414844  0.465975
Te5089  Te  0.227642  0.368792  0.500000
Mo2545  Mo  0.231430  0.375371  0.482988
Te5090  Te  0.227642  0.368792  0.465975
Te5091  Te  0.239006  0.375371  0.500000
Mo2546  Mo  0.242794  0.368792  0.482988
Te5092  Te  0.239006  0.375371  0.465975
Te5093  Te  0.227642  0.381950  0.500000
Mo2547  Mo  0.231430  0.388529  0.482988
Te5094  Te  0.227642  0.381950  0.465975
Te5095  Te  0.239006  0.388529  0.500000
Mo2548  Mo  0.242794  0.381950  0.482988
Te5096  Te  0.239006  0.388529  0.465975
Te5097  Te  0.227642  0.395107  0.500000
Mo2549  Mo  0.231430  0.401686  0.482988
Te5098  Te  0.227642  0.395107  0.465975
Te5099  Te  0.239006  0.401686  0.500000
Mo2550  Mo  0.242794  0.395107  0.482988
Te5100  Te  0.239006  0.401686  0.465975
Te5101  Te  0.227642  0.408265  0.500000
Mo2551  Mo  0.231430  0.414844  0.482988
Te5102  Te  0.227642  0.408265  0.465975
Te5103  Te  0.239006  0.414844  0.500000
Mo2552  Mo  0.242794  0.408265  0.482988
Te5104  Te  0.239006  0.414844  0.465975
Te5105  Te  0.250370  0.368792  0.500000
Mo2553  Mo  0.254158  0.375371  0.482988
Te5106  Te  0.250370  0.368792  0.465975
Te5107  Te  0.261733  0.375371  0.500000
Mo2554  Mo  0.265521  0.368792  0.482988
Te5108  Te  0.261733  0.375371  0.465975
Te5109  Te  0.250370  0.381950  0.500000
Mo2555  Mo  0.254158  0.388529  0.482988
Te5110  Te  0.250370  0.381950  0.465975
Te5111  Te  0.261733  0.388529  0.500000
Mo2556  Mo  0.265521  0.381950  0.482988
Te5112  Te  0.261733  0.388529  0.465975
Te5113  Te  0.250370  0.395107  0.500000
Mo2557  Mo  0.254158  0.401686  0.482988
Te5114  Te  0.250370  0.395107  0.465975
Te5115  Te  0.261733  0.401686  0.500000
Mo2558  Mo  0.265521  0.395107  0.482988
Te5116  Te  0.261733  0.401686  0.465975
Te5117  Te  0.250370  0.408265  0.500000
Mo2559  Mo  0.254158  0.414844  0.482988
Te5118  Te  0.250370  0.408265  0.465975
Te5119  Te  0.261733  0.414844  0.500000
Mo2560  Mo  0.265521  0.408265  0.482988
Te5120  Te  0.261733  0.414844  0.465975
Te5121  Te  0.273097  0.368792  0.500000
Mo2561  Mo  0.276885  0.375371  0.482988
Te5122  Te  0.273097  0.368792  0.465975
Te5123  Te  0.284461  0.375371  0.500000
Mo2562  Mo  0.288248  0.368792  0.482988
Te5124  Te  0.284461  0.375371  0.465975
Te5125  Te  0.273097  0.381950  0.500000
Mo2563  Mo  0.276885  0.388529  0.482988
Te5126  Te  0.273097  0.381950  0.465975
Te5127  Te  0.284461  0.388529  0.500000
Mo2564  Mo  0.288248  0.381950  0.482988
Te5128  Te  0.284461  0.388529  0.465975
Te5129  Te  0.273097  0.395107  0.500000
Mo2565  Mo  0.276885  0.401686  0.482988
Te5130  Te  0.273097  0.395107  0.465975
Te5131  Te  0.284461  0.401686  0.500000
Mo2566  Mo  0.288248  0.395107  0.482988
Te5132  Te  0.284461  0.401686  0.465975
Te5133  Te  0.273097  0.408265  0.500000
Mo2567  Mo  0.276885  0.414844  0.482988
Te5134  Te  0.273097  0.408265  0.465975
Te5135  Te  0.284461  0.414844  0.500000
Mo2568  Mo  0.288248  0.408265  0.482988
Te5136  Te  0.284461  0.414844  0.465975
Te5137  Te  0.295824  0.368792  0.500000
Mo2569  Mo  0.299612  0.375371  0.482988
Te5138  Te  0.295824  0.368792  0.465975
Te5139  Te  0.307188  0.375371  0.500000
Mo2570  Mo  0.310976  0.368792  0.482988
Te5140  Te  0.307188  0.375371  0.465975
Te5141  Te  0.295824  0.381950  0.500000
Mo2571  Mo  0.299612  0.388529  0.482988
Te5142  Te  0.295824  0.381950  0.465975
Te5143  Te  0.307188  0.388529  0.500000
Mo2572  Mo  0.310976  0.381950  0.482988
Te5144  Te  0.307188  0.388529  0.465975
Te5145  Te  0.295824  0.395107  0.500000
Mo2573  Mo  0.299612  0.401686  0.482988
Te5146  Te  0.295824  0.395107  0.465975
Te5147  Te  0.307188  0.401686  0.500000
Mo2574  Mo  0.310976  0.395107  0.482988
Te5148  Te  0.307188  0.401686  0.465975
Te5149  Te  0.295824  0.408265  0.500000
Mo2575  Mo  0.299612  0.414844  0.482988
Te5150  Te  0.295824  0.408265  0.465975
Te5151  Te  0.307188  0.414844  0.500000
Mo2576  Mo  0.310976  0.408265  0.482988
Te5152  Te  0.307188  0.414844  0.465975
Te5153  Te  0.318551  0.368792  0.500000
Mo2577  Mo  0.322339  0.375371  0.482988
Te5154  Te  0.318551  0.368792  0.465975
Te5155  Te  0.329915  0.375371  0.500000
Mo2578  Mo  0.333703  0.368792  0.482988
Te5156  Te  0.329915  0.375371  0.465975
Te5157  Te  0.318551  0.381950  0.500000
Mo2579  Mo  0.322339  0.388529  0.482988
Te5158  Te  0.318551  0.381950  0.465975
Te5159  Te  0.329915  0.388529  0.500000
Mo2580  Mo  0.333703  0.381950  0.482988
Te5160  Te  0.329915  0.388529  0.465975
Te5161  Te  0.318551  0.395107  0.500000
Mo2581  Mo  0.322339  0.401686  0.482988
Te5162  Te  0.318551  0.395107  0.465975
Te5163  Te  0.329915  0.401686  0.500000
Mo2582  Mo  0.333703  0.395107  0.482988
Te5164  Te  0.329915  0.401686  0.465975
Te5165  Te  0.318551  0.408265  0.500000
Mo2583  Mo  0.322339  0.414844  0.482988
Te5166  Te  0.318551  0.408265  0.465975
Te5167  Te  0.329915  0.414844  0.500000
Mo2584  Mo  0.333703  0.408265  0.482988
Te5168  Te  0.329915  0.414844  0.465975
Te5169  Te  0.341279  0.368792  0.500000
Mo2585  Mo  0.345067  0.375371  0.482988
Te5170  Te  0.341279  0.368792  0.465975
Te5171  Te  0.352642  0.375371  0.500000
Mo2586  Mo  0.356430  0.368792  0.482988
Te5172  Te  0.352642  0.375371  0.465975
Te5173  Te  0.341279  0.381950  0.500000
Mo2587  Mo  0.345067  0.388529  0.482988
Te5174  Te  0.341279  0.381950  0.465975
Te5175  Te  0.352642  0.388529  0.500000
Mo2588  Mo  0.356430  0.381950  0.482988
Te5176  Te  0.352642  0.388529  0.465975
Te5177  Te  0.341279  0.395107  0.500000
Mo2589  Mo  0.345067  0.401686  0.482988
Te5178  Te  0.341279  0.395107  0.465975
Te5179  Te  0.352642  0.401686  0.500000
Mo2590  Mo  0.356430  0.395107  0.482988
Te5180  Te  0.352642  0.401686  0.465975
Te5181  Te  0.341279  0.408265  0.500000
Mo2591  Mo  0.345067  0.414844  0.482988
Te5182  Te  0.341279  0.408265  0.465975
Te5183  Te  0.352642  0.414844  0.500000
Mo2592  Mo  0.356430  0.408265  0.482988
Te5184  Te  0.352642  0.414844  0.465975
Te5185  Te  0.364006  0.368792  0.500000
Mo2593  Mo  0.367794  0.375371  0.482988
Te5186  Te  0.364006  0.368792  0.465975
Te5187  Te  0.375370  0.375371  0.500000
Mo2594  Mo  0.379158  0.368792  0.482988
Te5188  Te  0.375370  0.375371  0.465975
Te5189  Te  0.364006  0.381950  0.500000
Mo2595  Mo  0.367794  0.388529  0.482988
Te5190  Te  0.364006  0.381950  0.465975
Te5191  Te  0.375370  0.388529  0.500000
Mo2596  Mo  0.379158  0.381950  0.482988
Te5192  Te  0.375370  0.388529  0.465975
Te5193  Te  0.364006  0.395107  0.500000
Mo2597  Mo  0.367794  0.401686  0.482988
Te5194  Te  0.364006  0.395107  0.465975
Te5195  Te  0.375370  0.401686  0.500000
Mo2598  Mo  0.379158  0.395107  0.482988
Te5196  Te  0.375370  0.401686  0.465975
Te5197  Te  0.364006  0.408265  0.500000
Mo2599  Mo  0.367794  0.414844  0.482988
Te5198  Te  0.364006  0.408265  0.465975
Te5199  Te  0.375370  0.414844  0.500000
Mo2600  Mo  0.379158  0.408265  0.482988
Te5200  Te  0.375370  0.414844  0.465975
Te5201  Te  0.386733  0.368792  0.500000
Mo2601  Mo  0.390521  0.375371  0.482988
Te5202  Te  0.386733  0.368792  0.465975
Te5203  Te  0.398097  0.375371  0.500000
Mo2602  Mo  0.401885  0.368792  0.482988
Te5204  Te  0.398097  0.375371  0.465975
Te5205  Te  0.386733  0.381950  0.500000
Mo2603  Mo  0.390521  0.388529  0.482988
Te5206  Te  0.386733  0.381950  0.465975
Te5207  Te  0.398097  0.388529  0.500000
Mo2604  Mo  0.401885  0.381950  0.482988
Te5208  Te  0.398097  0.388529  0.465975
Te5209  Te  0.386733  0.395107  0.500000
Mo2605  Mo  0.390521  0.401686  0.482988
Te5210  Te  0.386733  0.395107  0.465975
Te5211  Te  0.398097  0.401686  0.500000
Mo2606  Mo  0.401885  0.395107  0.482988
Te5212  Te  0.398097  0.401686  0.465975
Te5213  Te  0.386733  0.408265  0.500000
Mo2607  Mo  0.390521  0.414844  0.482988
Te5214  Te  0.386733  0.408265  0.465975
Te5215  Te  0.398097  0.414844  0.500000
Mo2608  Mo  0.401885  0.408265  0.482988
Te5216  Te  0.398097  0.414844  0.465975
Te5217  Te  0.409461  0.368792  0.500000
Mo2609  Mo  0.413248  0.375371  0.482988
Te5218  Te  0.409461  0.368792  0.465975
Te5219  Te  0.420824  0.375371  0.500000
Mo2610  Mo  0.424612  0.368792  0.482988
Te5220  Te  0.420824  0.375371  0.465975
Te5221  Te  0.409461  0.381950  0.500000
Mo2611  Mo  0.413248  0.388529  0.482988
Te5222  Te  0.409461  0.381950  0.465975
Te5223  Te  0.420824  0.388529  0.500000
Mo2612  Mo  0.424612  0.381950  0.482988
Te5224  Te  0.420824  0.388529  0.465975
Te5225  Te  0.409461  0.395107  0.500000
Mo2613  Mo  0.413248  0.401686  0.482988
Te5226  Te  0.409461  0.395107  0.465975
Te5227  Te  0.420824  0.401686  0.500000
Mo2614  Mo  0.424612  0.395107  0.482988
Te5228  Te  0.420824  0.401686  0.465975
Te5229  Te  0.409461  0.408265  0.500000
Mo2615  Mo  0.413248  0.414844  0.482988
Te5230  Te  0.409461  0.408265  0.465975
Te5231  Te  0.420824  0.414844  0.500000
Mo2616  Mo  0.424612  0.408265  0.482988
Te5232  Te  0.420824  0.414844  0.465975
Te5233  Te  0.432188  0.368792  0.500000
Mo2617  Mo  0.435976  0.375371  0.482988
Te5234  Te  0.432188  0.368792  0.465975
Te5235  Te  0.443552  0.375371  0.500000
Mo2618  Mo  0.447339  0.368792  0.482988
Te5236  Te  0.443552  0.375371  0.465975
Te5237  Te  0.432188  0.381950  0.500000
Mo2619  Mo  0.435976  0.388529  0.482988
Te5238  Te  0.432188  0.381950  0.465975
Te5239  Te  0.443552  0.388529  0.500000
Mo2620  Mo  0.447339  0.381950  0.482988
Te5240  Te  0.443552  0.388529  0.465975
Te5241  Te  0.432188  0.395107  0.500000
Mo2621  Mo  0.435976  0.401686  0.482988
Te5242  Te  0.432188  0.395107  0.465975
Te5243  Te  0.443552  0.401686  0.500000
Mo2622  Mo  0.447339  0.395107  0.482988
Te5244  Te  0.443552  0.401686  0.465975
Te5245  Te  0.432188  0.408265  0.500000
Mo2623  Mo  0.435976  0.414844  0.482988
Te5246  Te  0.432188  0.408265  0.465975
Te5247  Te  0.443552  0.414844  0.500000
Mo2624  Mo  0.447339  0.408265  0.482988
Te5248  Te  0.443552  0.414844  0.465975
Te5249  Te  0.454915  0.368792  0.500000
Mo2625  Mo  0.458703  0.375371  0.482988
Te5250  Te  0.454915  0.368792  0.465975
Te5251  Te  0.466279  0.375371  0.500000
Mo2626  Mo  0.470067  0.368792  0.482988
Te5252  Te  0.466279  0.375371  0.465975
Te5253  Te  0.454915  0.381950  0.500000
Mo2627  Mo  0.458703  0.388529  0.482988
Te5254  Te  0.454915  0.381950  0.465975
Te5255  Te  0.466279  0.388529  0.500000
Mo2628  Mo  0.470067  0.381950  0.482988
Te5256  Te  0.466279  0.388529  0.465975
Te5257  Te  0.454915  0.395107  0.500000
Mo2629  Mo  0.458703  0.401686  0.482988
Te5258  Te  0.454915  0.395107  0.465975
Te5259  Te  0.466279  0.401686  0.500000
Mo2630  Mo  0.470067  0.395107  0.482988
Te5260  Te  0.466279  0.401686  0.465975
Te5261  Te  0.454915  0.408265  0.500000
Mo2631  Mo  0.458703  0.414844  0.482988
Te5262  Te  0.454915  0.408265  0.465975
Te5263  Te  0.466279  0.414844  0.500000
Mo2632  Mo  0.470067  0.408265  0.482988
Te5264  Te  0.466279  0.414844  0.465975
Te5265  Te  0.477642  0.368792  0.500000
Mo2633  Mo  0.481430  0.375371  0.482988
Te5266  Te  0.477642  0.368792  0.465975
Te5267  Te  0.489006  0.375371  0.500000
Mo2634  Mo  0.492794  0.368792  0.482988
Te5268  Te  0.489006  0.375371  0.465975
Te5269  Te  0.477642  0.381950  0.500000
Mo2635  Mo  0.481430  0.388529  0.482988
Te5270  Te  0.477642  0.381950  0.465975
Te5271  Te  0.489006  0.388529  0.500000
Mo2636  Mo  0.492794  0.381950  0.482988
Te5272  Te  0.489006  0.388529  0.465975
Te5273  Te  0.477642  0.395107  0.500000
Mo2637  Mo  0.481430  0.401686  0.482988
Te5274  Te  0.477642  0.395107  0.465975
Te5275  Te  0.489006  0.401686  0.500000
Mo2638  Mo  0.492794  0.395107  0.482988
Te5276  Te  0.489006  0.401686  0.465975
Te5277  Te  0.477642  0.408265  0.500000
Mo2639  Mo  0.481430  0.414844  0.482988
Te5278  Te  0.477642  0.408265  0.465975
Te5279  Te  0.489006  0.414844  0.500000
Mo2640  Mo  0.492794  0.408265  0.482988
Te5280  Te  0.489006  0.414844  0.465975
Te5281  Te  0.500370  0.368792  0.500000
Mo2641  Mo  0.504158  0.375371  0.482988
Te5282  Te  0.500370  0.368792  0.465975
Te5283  Te  0.511733  0.375371  0.500000
Mo2642  Mo  0.515521  0.368792  0.482988
Te5284  Te  0.511733  0.375371  0.465975
Te5285  Te  0.500370  0.381950  0.500000
Mo2643  Mo  0.504158  0.388529  0.482988
Te5286  Te  0.500370  0.381950  0.465975
Te5287  Te  0.511733  0.388529  0.500000
Mo2644  Mo  0.515521  0.381950  0.482988
Te5288  Te  0.511733  0.388529  0.465975
Te5289  Te  0.500370  0.395107  0.500000
Mo2645  Mo  0.504158  0.401686  0.482988
Te5290  Te  0.500370  0.395107  0.465975
Te5291  Te  0.511733  0.401686  0.500000
Mo2646  Mo  0.515521  0.395107  0.482988
Te5292  Te  0.511733  0.401686  0.465975
Te5293  Te  0.500370  0.408265  0.500000
Mo2647  Mo  0.504158  0.414844  0.482988
Te5294  Te  0.500370  0.408265  0.465975
Te5295  Te  0.511733  0.414844  0.500000
Mo2648  Mo  0.515521  0.408265  0.482988
Te5296  Te  0.511733  0.414844  0.465975
Te5297  Te  0.523097  0.368792  0.500000
Mo2649  Mo  0.526885  0.375371  0.482988
Te5298  Te  0.523097  0.368792  0.465975
Te5299  Te  0.534461  0.375371  0.500000
Mo2650  Mo  0.538249  0.368792  0.482988
Te5300  Te  0.534461  0.375371  0.465975
Te5301  Te  0.523097  0.381950  0.500000
Mo2651  Mo  0.526885  0.388529  0.482988
Te5302  Te  0.523097  0.381950  0.465975
Te5303  Te  0.534461  0.388529  0.500000
Mo2652  Mo  0.538249  0.381950  0.482988
Te5304  Te  0.534461  0.388529  0.465975
Te5305  Te  0.523097  0.395107  0.500000
Mo2653  Mo  0.526885  0.401686  0.482988
Te5306  Te  0.523097  0.395107  0.465975
Te5307  Te  0.534461  0.401686  0.500000
Mo2654  Mo  0.538249  0.395107  0.482988
Te5308  Te  0.534461  0.401686  0.465975
Te5309  Te  0.523097  0.408265  0.500000
Mo2655  Mo  0.526885  0.414844  0.482988
Te5310  Te  0.523097  0.408265  0.465975
Te5311  Te  0.534461  0.414844  0.500000
Mo2656  Mo  0.538249  0.408265  0.482988
Te5312  Te  0.534461  0.414844  0.465975
Te5313  Te  0.545824  0.368792  0.500000
Mo2657  Mo  0.549612  0.375371  0.482988
Te5314  Te  0.545824  0.368792  0.465975
Te5315  Te  0.557188  0.375371  0.500000
Mo2658  Mo  0.560976  0.368792  0.482988
Te5316  Te  0.557188  0.375371  0.465975
Te5317  Te  0.545824  0.381950  0.500000
Mo2659  Mo  0.549612  0.388529  0.482988
Te5318  Te  0.545824  0.381950  0.465975
Te5319  Te  0.557188  0.388529  0.500000
Mo2660  Mo  0.560976  0.381950  0.482988
Te5320  Te  0.557188  0.388529  0.465975
Te5321  Te  0.545824  0.395107  0.500000
Mo2661  Mo  0.549612  0.401686  0.482988
Te5322  Te  0.545824  0.395107  0.465975
Te5323  Te  0.557188  0.401686  0.500000
Mo2662  Mo  0.560976  0.395107  0.482988
Te5324  Te  0.557188  0.401686  0.465975
Te5325  Te  0.545824  0.408265  0.500000
Mo2663  Mo  0.549612  0.414844  0.482988
Te5326  Te  0.545824  0.408265  0.465975
Te5327  Te  0.557188  0.414844  0.500000
Mo2664  Mo  0.560976  0.408265  0.482988
Te5328  Te  0.557188  0.414844  0.465975
Te5329  Te  0.568552  0.368792  0.500000
Mo2665  Mo  0.572339  0.375371  0.482988
Te5330  Te  0.568552  0.368792  0.465975
Te5331  Te  0.579915  0.375371  0.500000
Mo2666  Mo  0.583703  0.368792  0.482988
Te5332  Te  0.579915  0.375371  0.465975
Te5333  Te  0.568552  0.381950  0.500000
Mo2667  Mo  0.572339  0.388529  0.482988
Te5334  Te  0.568552  0.381950  0.465975
Te5335  Te  0.579915  0.388529  0.500000
Mo2668  Mo  0.583703  0.381950  0.482988
Te5336  Te  0.579915  0.388529  0.465975
Te5337  Te  0.568552  0.395107  0.500000
Mo2669  Mo  0.572339  0.401686  0.482988
Te5338  Te  0.568552  0.395107  0.465975
Te5339  Te  0.579915  0.401686  0.500000
Mo2670  Mo  0.583703  0.395107  0.482988
Te5340  Te  0.579915  0.401686  0.465975
Te5341  Te  0.568552  0.408265  0.500000
Mo2671  Mo  0.572339  0.414844  0.482988
Te5342  Te  0.568552  0.408265  0.465975
Te5343  Te  0.579915  0.414844  0.500000
Mo2672  Mo  0.583703  0.408265  0.482988
Te5344  Te  0.579915  0.414844  0.465975
Te5345  Te  0.591279  0.368792  0.500000
Mo2673  Mo  0.595067  0.375371  0.482988
Te5346  Te  0.591279  0.368792  0.465975
Te5347  Te  0.602642  0.375371  0.500000
Mo2674  Mo  0.606430  0.368792  0.482988
Te5348  Te  0.602642  0.375371  0.465975
Te5349  Te  0.591279  0.381950  0.500000
Mo2675  Mo  0.595067  0.388529  0.482988
Te5350  Te  0.591279  0.381950  0.465975
Te5351  Te  0.602642  0.388529  0.500000
Mo2676  Mo  0.606430  0.381950  0.482988
Te5352  Te  0.602642  0.388529  0.465975
Te5353  Te  0.591279  0.395107  0.500000
Mo2677  Mo  0.595067  0.401686  0.482988
Te5354  Te  0.591279  0.395107  0.465975
Te5355  Te  0.602642  0.401686  0.500000
Mo2678  Mo  0.606430  0.395107  0.482988
Te5356  Te  0.602642  0.401686  0.465975
Te5357  Te  0.591279  0.408265  0.500000
Mo2679  Mo  0.595067  0.414844  0.482988
Te5358  Te  0.591279  0.408265  0.465975
Te5359  Te  0.602642  0.414844  0.500000
Mo2680  Mo  0.606430  0.408265  0.482988
Te5360  Te  0.602642  0.414844  0.465975
Te5361  Te  0.614006  0.368792  0.500000
Mo2681  Mo  0.617794  0.375371  0.482988
Te5362  Te  0.614006  0.368792  0.465975
Te5363  Te  0.625370  0.375371  0.500000
Mo2682  Mo  0.629158  0.368792  0.482988
Te5364  Te  0.625370  0.375371  0.465975
Te5365  Te  0.614006  0.381950  0.500000
Mo2683  Mo  0.617794  0.388529  0.482988
Te5366  Te  0.614006  0.381950  0.465975
Te5367  Te  0.625370  0.388529  0.500000
Mo2684  Mo  0.629158  0.381950  0.482988
Te5368  Te  0.625370  0.388529  0.465975
Te5369  Te  0.614006  0.395107  0.500000
Mo2685  Mo  0.617794  0.401686  0.482988
Te5370  Te  0.614006  0.395107  0.465975
Te5371  Te  0.625370  0.401686  0.500000
Mo2686  Mo  0.629158  0.395107  0.482988
Te5372  Te  0.625370  0.401686  0.465975
Te5373  Te  0.614006  0.408265  0.500000
Mo2687  Mo  0.617794  0.414844  0.482988
Te5374  Te  0.614006  0.408265  0.465975
Te5375  Te  0.625370  0.414844  0.500000
Mo2688  Mo  0.629158  0.408265  0.482988
Te5376  Te  0.625370  0.414844  0.465975
Te5377  Te  0.636733  0.368792  0.500000
Mo2689  Mo  0.640521  0.375371  0.482988
Te5378  Te  0.636733  0.368792  0.465975
Te5379  Te  0.648097  0.375371  0.500000
Mo2690  Mo  0.651885  0.368792  0.482988
Te5380  Te  0.648097  0.375371  0.465975
Te5381  Te  0.636733  0.381950  0.500000
Mo2691  Mo  0.640521  0.388529  0.482988
Te5382  Te  0.636733  0.381950  0.465975
Te5383  Te  0.648097  0.388529  0.500000
Mo2692  Mo  0.651885  0.381950  0.482988
Te5384  Te  0.648097  0.388529  0.465975
Te5385  Te  0.636733  0.395107  0.500000
Mo2693  Mo  0.640521  0.401686  0.482988
Te5386  Te  0.636733  0.395107  0.465975
Te5387  Te  0.648097  0.401686  0.500000
Mo2694  Mo  0.651885  0.395107  0.482988
Te5388  Te  0.648097  0.401686  0.465975
Te5389  Te  0.636733  0.408265  0.500000
Mo2695  Mo  0.640521  0.414844  0.482988
Te5390  Te  0.636733  0.408265  0.465975
Te5391  Te  0.648097  0.414844  0.500000
Mo2696  Mo  0.651885  0.408265  0.482988
Te5392  Te  0.648097  0.414844  0.465975
Te5393  Te  0.659461  0.368792  0.500000
Mo2697  Mo  0.663248  0.375371  0.482988
Te5394  Te  0.659461  0.368792  0.465975
Te5395  Te  0.670824  0.375371  0.500000
Mo2698  Mo  0.674612  0.368792  0.482988
Te5396  Te  0.670824  0.375371  0.465975
Te5397  Te  0.659461  0.381950  0.500000
Mo2699  Mo  0.663248  0.388529  0.482988
Te5398  Te  0.659461  0.381950  0.465975
Te5399  Te  0.670824  0.388529  0.500000
Mo2700  Mo  0.674612  0.381950  0.482988
Te5400  Te  0.670824  0.388529  0.465975
Te5401  Te  0.659461  0.395107  0.500000
Mo2701  Mo  0.663248  0.401686  0.482988
Te5402  Te  0.659461  0.395107  0.465975
Te5403  Te  0.670824  0.401686  0.500000
Mo2702  Mo  0.674612  0.395107  0.482988
Te5404  Te  0.670824  0.401686  0.465975
Te5405  Te  0.659461  0.408265  0.500000
Mo2703  Mo  0.663248  0.414844  0.482988
Te5406  Te  0.659461  0.408265  0.465975
Te5407  Te  0.670824  0.414844  0.500000
Mo2704  Mo  0.674612  0.408265  0.482988
Te5408  Te  0.670824  0.414844  0.465975
Te5409  Te  0.682188  0.368792  0.500000
Mo2705  Mo  0.685976  0.375371  0.482988
Te5410  Te  0.682188  0.368792  0.465975
Te5411  Te  0.693551  0.375371  0.500000
Mo2706  Mo  0.697339  0.368792  0.482988
Te5412  Te  0.693551  0.375371  0.465975
Te5413  Te  0.682188  0.381950  0.500000
Mo2707  Mo  0.685976  0.388529  0.482988
Te5414  Te  0.682188  0.381950  0.465975
Te5415  Te  0.693551  0.388529  0.500000
Mo2708  Mo  0.697339  0.381950  0.482988
Te5416  Te  0.693551  0.388529  0.465975
Te5417  Te  0.682188  0.395107  0.500000
Mo2709  Mo  0.685976  0.401686  0.482988
Te5418  Te  0.682188  0.395107  0.465975
Te5419  Te  0.693551  0.401686  0.500000
Mo2710  Mo  0.697339  0.395107  0.482988
Te5420  Te  0.693551  0.401686  0.465975
Te5421  Te  0.682188  0.408265  0.500000
Mo2711  Mo  0.685976  0.414844  0.482988
Te5422  Te  0.682188  0.408265  0.465975
Te5423  Te  0.693551  0.414844  0.500000
Mo2712  Mo  0.697339  0.408265  0.482988
Te5424  Te  0.693551  0.414844  0.465975
Te5425  Te  0.704915  0.368792  0.500000
Mo2713  Mo  0.708703  0.375371  0.482988
Te5426  Te  0.704915  0.368792  0.465975
Te5427  Te  0.716279  0.375371  0.500000
Mo2714  Mo  0.720067  0.368792  0.482988
Te5428  Te  0.716279  0.375371  0.465975
Te5429  Te  0.704915  0.381950  0.500000
Mo2715  Mo  0.708703  0.388529  0.482988
Te5430  Te  0.704915  0.381950  0.465975
Te5431  Te  0.716279  0.388529  0.500000
Mo2716  Mo  0.720067  0.381950  0.482988
Te5432  Te  0.716279  0.388529  0.465975
Te5433  Te  0.704915  0.395107  0.500000
Mo2717  Mo  0.708703  0.401686  0.482988
Te5434  Te  0.704915  0.395107  0.465975
Te5435  Te  0.716279  0.401686  0.500000
Mo2718  Mo  0.720067  0.395107  0.482988
Te5436  Te  0.716279  0.401686  0.465975
Te5437  Te  0.704915  0.408265  0.500000
Mo2719  Mo  0.708703  0.414844  0.482988
Te5438  Te  0.704915  0.408265  0.465975
Te5439  Te  0.716279  0.414844  0.500000
Mo2720  Mo  0.720067  0.408265  0.482988
Te5440  Te  0.716279  0.414844  0.465975
Te5441  Te  0.727642  0.368792  0.500000
Mo2721  Mo  0.731430  0.375371  0.482988
Te5442  Te  0.727642  0.368792  0.465975
Te5443  Te  0.739006  0.375371  0.500000
Mo2722  Mo  0.742794  0.368792  0.482988
Te5444  Te  0.739006  0.375371  0.465975
Te5445  Te  0.727642  0.381950  0.500000
Mo2723  Mo  0.731430  0.388529  0.482988
Te5446  Te  0.727642  0.381950  0.465975
Te5447  Te  0.739006  0.388529  0.500000
Mo2724  Mo  0.742794  0.381950  0.482988
Te5448  Te  0.739006  0.388529  0.465975
Te5449  Te  0.727642  0.395107  0.500000
Mo2725  Mo  0.731430  0.401686  0.482988
Te5450  Te  0.727642  0.395107  0.465975
Te5451  Te  0.739006  0.401686  0.500000
Mo2726  Mo  0.742794  0.395107  0.482988
Te5452  Te  0.739006  0.401686  0.465975
Te5453  Te  0.727642  0.408265  0.500000
Mo2727  Mo  0.731430  0.414844  0.482988
Te5454  Te  0.727642  0.408265  0.465975
Te5455  Te  0.739006  0.414844  0.500000
Mo2728  Mo  0.742794  0.408265  0.482988
Te5456  Te  0.739006  0.414844  0.465975
Te5457  Te  0.750370  0.368792  0.500000
Mo2729  Mo  0.754158  0.375371  0.482988
Te5458  Te  0.750370  0.368792  0.465975
Te5459  Te  0.761733  0.375371  0.500000
Mo2730  Mo  0.765521  0.368792  0.482988
Te5460  Te  0.761733  0.375371  0.465975
Te5461  Te  0.750370  0.381950  0.500000
Mo2731  Mo  0.754158  0.388529  0.482988
Te5462  Te  0.750370  0.381950  0.465975
Te5463  Te  0.761733  0.388529  0.500000
Mo2732  Mo  0.765521  0.381950  0.482988
Te5464  Te  0.761733  0.388529  0.465975
Te5465  Te  0.750370  0.395107  0.500000
Mo2733  Mo  0.754158  0.401686  0.482988
Te5466  Te  0.750370  0.395107  0.465975
Te5467  Te  0.761733  0.401686  0.500000
Mo2734  Mo  0.765521  0.395107  0.482988
Te5468  Te  0.761733  0.401686  0.465975
Te5469  Te  0.750370  0.408265  0.500000
Mo2735  Mo  0.754158  0.414844  0.482988
Te5470  Te  0.750370  0.408265  0.465975
Te5471  Te  0.761733  0.414844  0.500000
Mo2736  Mo  0.765521  0.408265  0.482988
Te5472  Te  0.761733  0.414844  0.465975
Te5473  Te  0.773097  0.368792  0.500000
Mo2737  Mo  0.776885  0.375371  0.482988
Te5474  Te  0.773097  0.368792  0.465975
Te5475  Te  0.784461  0.375371  0.500000
Mo2738  Mo  0.788248  0.368792  0.482988
Te5476  Te  0.784461  0.375371  0.465975
Te5477  Te  0.773097  0.381950  0.500000
Mo2739  Mo  0.776885  0.388529  0.482988
Te5478  Te  0.773097  0.381950  0.465975
Te5479  Te  0.784461  0.388529  0.500000
Mo2740  Mo  0.788248  0.381950  0.482988
Te5480  Te  0.784461  0.388529  0.465975
Te5481  Te  0.773097  0.395107  0.500000
Mo2741  Mo  0.776885  0.401686  0.482988
Te5482  Te  0.773097  0.395107  0.465975
Te5483  Te  0.784461  0.401686  0.500000
Mo2742  Mo  0.788248  0.395107  0.482988
Te5484  Te  0.784461  0.401686  0.465975
Te5485  Te  0.773097  0.408265  0.500000
Mo2743  Mo  0.776885  0.414844  0.482988
Te5486  Te  0.773097  0.408265  0.465975
Te5487  Te  0.784461  0.414844  0.500000
Mo2744  Mo  0.788248  0.408265  0.482988
Te5488  Te  0.784461  0.414844  0.465975
Te5489  Te  0.795824  0.368792  0.500000
Mo2745  Mo  0.799612  0.375371  0.482988
Te5490  Te  0.795824  0.368792  0.465975
Te5491  Te  0.807188  0.375371  0.500000
Mo2746  Mo  0.810976  0.368792  0.482988
Te5492  Te  0.807188  0.375371  0.465975
Te5493  Te  0.795824  0.381950  0.500000
Mo2747  Mo  0.799612  0.388529  0.482988
Te5494  Te  0.795824  0.381950  0.465975
Te5495  Te  0.807188  0.388529  0.500000
Mo2748  Mo  0.810976  0.381950  0.482988
Te5496  Te  0.807188  0.388529  0.465975
Te5497  Te  0.795824  0.395107  0.500000
Mo2749  Mo  0.799612  0.401686  0.482988
Te5498  Te  0.795824  0.395107  0.465975
Te5499  Te  0.807188  0.401686  0.500000
Mo2750  Mo  0.810976  0.395107  0.482988
Te5500  Te  0.807188  0.401686  0.465975
Te5501  Te  0.795824  0.408265  0.500000
Mo2751  Mo  0.799612  0.414844  0.482988
Te5502  Te  0.795824  0.408265  0.465975
Te5503  Te  0.807188  0.414844  0.500000
Mo2752  Mo  0.810976  0.408265  0.482988
Te5504  Te  0.807188  0.414844  0.465975
Te5505  Te  0.818551  0.368792  0.500000
Mo2753  Mo  0.822339  0.375371  0.482988
Te5506  Te  0.818551  0.368792  0.465975
Te5507  Te  0.829915  0.375371  0.500000
Mo2754  Mo  0.833703  0.368792  0.482988
Te5508  Te  0.829915  0.375371  0.465975
Te5509  Te  0.818551  0.381950  0.500000
Mo2755  Mo  0.822339  0.388529  0.482988
Te5510  Te  0.818551  0.381950  0.465975
Te5511  Te  0.829915  0.388529  0.500000
Mo2756  Mo  0.833703  0.381950  0.482988
Te5512  Te  0.829915  0.388529  0.465975
Te5513  Te  0.818551  0.395107  0.500000
Mo2757  Mo  0.822339  0.401686  0.482988
Te5514  Te  0.818551  0.395107  0.465975
Te5515  Te  0.829915  0.401686  0.500000
Mo2758  Mo  0.833703  0.395107  0.482988
Te5516  Te  0.829915  0.401686  0.465975
Te5517  Te  0.818551  0.408265  0.500000
Mo2759  Mo  0.822339  0.414844  0.482988
Te5518  Te  0.818551  0.408265  0.465975
Te5519  Te  0.829915  0.414844  0.500000
Mo2760  Mo  0.833703  0.408265  0.482988
Te5520  Te  0.829915  0.414844  0.465975
Te5521  Te  0.841279  0.368792  0.500000
Mo2761  Mo  0.845067  0.375371  0.482988
Te5522  Te  0.841279  0.368792  0.465975
Te5523  Te  0.852642  0.375371  0.500000
Mo2762  Mo  0.856430  0.368792  0.482988
Te5524  Te  0.852642  0.375371  0.465975
Te5525  Te  0.841279  0.381950  0.500000
Mo2763  Mo  0.845067  0.388529  0.482988
Te5526  Te  0.841279  0.381950  0.465975
Te5527  Te  0.852642  0.388529  0.500000
Mo2764  Mo  0.856430  0.381950  0.482988
Te5528  Te  0.852642  0.388529  0.465975
Te5529  Te  0.841279  0.395107  0.500000
Mo2765  Mo  0.845067  0.401686  0.482988
Te5530  Te  0.841279  0.395107  0.465975
Te5531  Te  0.852642  0.401686  0.500000
Mo2766  Mo  0.856430  0.395107  0.482988
Te5532  Te  0.852642  0.401686  0.465975
Te5533  Te  0.841279  0.408265  0.500000
Mo2767  Mo  0.845067  0.414844  0.482988
Te5534  Te  0.841279  0.408265  0.465975
Te5535  Te  0.852642  0.414844  0.500000
Mo2768  Mo  0.856430  0.408265  0.482988
Te5536  Te  0.852642  0.414844  0.465975
Te5537  Te  0.864006  0.368792  0.500000
Mo2769  Mo  0.867794  0.375371  0.482988
Te5538  Te  0.864006  0.368792  0.465975
Te5539  Te  0.875370  0.375371  0.500000
Mo2770  Mo  0.879158  0.368792  0.482988
Te5540  Te  0.875370  0.375371  0.465975
Te5541  Te  0.864006  0.381950  0.500000
Mo2771  Mo  0.867794  0.388529  0.482988
Te5542  Te  0.864006  0.381950  0.465975
Te5543  Te  0.875370  0.388529  0.500000
Mo2772  Mo  0.879158  0.381950  0.482988
Te5544  Te  0.875370  0.388529  0.465975
Te5545  Te  0.864006  0.395107  0.500000
Mo2773  Mo  0.867794  0.401686  0.482988
Te5546  Te  0.864006  0.395107  0.465975
Te5547  Te  0.875370  0.401686  0.500000
Mo2774  Mo  0.879158  0.395107  0.482988
Te5548  Te  0.875370  0.401686  0.465975
Te5549  Te  0.864006  0.408265  0.500000
Mo2775  Mo  0.867794  0.414844  0.482988
Te5550  Te  0.864006  0.408265  0.465975
Te5551  Te  0.875370  0.414844  0.500000
Mo2776  Mo  0.879158  0.408265  0.482988
Te5552  Te  0.875370  0.414844  0.465975
Te5553  Te  0.886733  0.368792  0.500000
Mo2777  Mo  0.890521  0.375371  0.482988
Te5554  Te  0.886733  0.368792  0.465975
Te5555  Te  0.898097  0.375371  0.500000
Mo2778  Mo  0.901885  0.368792  0.482988
Te5556  Te  0.898097  0.375371  0.465975
Te5557  Te  0.886733  0.381950  0.500000
Mo2779  Mo  0.890521  0.388529  0.482988
Te5558  Te  0.886733  0.381950  0.465975
Te5559  Te  0.898097  0.388529  0.500000
Mo2780  Mo  0.901885  0.381950  0.482988
Te5560  Te  0.898097  0.388529  0.465975
Te5561  Te  0.886733  0.395107  0.500000
Mo2781  Mo  0.890521  0.401686  0.482988
Te5562  Te  0.886733  0.395107  0.465975
Te5563  Te  0.898097  0.401686  0.500000
Mo2782  Mo  0.901885  0.395107  0.482988
Te5564  Te  0.898097  0.401686  0.465975
Te5565  Te  0.886733  0.408265  0.500000
Mo2783  Mo  0.890521  0.414844  0.482988
Te5566  Te  0.886733  0.408265  0.465975
Te5567  Te  0.898097  0.414844  0.500000
Mo2784  Mo  0.901885  0.408265  0.482988
Te5568  Te  0.898097  0.414844  0.465975
Te5569  Te  0.909461  0.368792  0.500000
Mo2785  Mo  0.913248  0.375371  0.482988
Te5570  Te  0.909461  0.368792  0.465975
Te5571  Te  0.920824  0.375371  0.500000
Mo2786  Mo  0.924612  0.368792  0.482988
Te5572  Te  0.920824  0.375371  0.465975
Te5573  Te  0.909461  0.381950  0.500000
Mo2787  Mo  0.913248  0.388529  0.482988
Te5574  Te  0.909461  0.381950  0.465975
Te5575  Te  0.920824  0.388529  0.500000
Mo2788  Mo  0.924612  0.381950  0.482988
Te5576  Te  0.920824  0.388529  0.465975
Te5577  Te  0.909461  0.395107  0.500000
Mo2789  Mo  0.913248  0.401686  0.482988
Te5578  Te  0.909461  0.395107  0.465975
Te5579  Te  0.920824  0.401686  0.500000
Mo2790  Mo  0.924612  0.395107  0.482988
Te5580  Te  0.920824  0.401686  0.465975
Te5581  Te  0.909461  0.408265  0.500000
Mo2791  Mo  0.913248  0.414844  0.482988
Te5582  Te  0.909461  0.408265  0.465975
Te5583  Te  0.920824  0.414844  0.500000
Mo2792  Mo  0.924612  0.408265  0.482988
Te5584  Te  0.920824  0.414844  0.465975
Te5585  Te  0.932188  0.368792  0.500000
Mo2793  Mo  0.935976  0.375371  0.482988
Te5586  Te  0.932188  0.368792  0.465975
Te5587  Te  0.943552  0.375371  0.500000
Mo2794  Mo  0.947339  0.368792  0.482988
Te5588  Te  0.943552  0.375371  0.465975
Te5589  Te  0.932188  0.381950  0.500000
Mo2795  Mo  0.935976  0.388529  0.482988
Te5590  Te  0.932188  0.381950  0.465975
Te5591  Te  0.943552  0.388529  0.500000
Mo2796  Mo  0.947339  0.381950  0.482988
Te5592  Te  0.943552  0.388529  0.465975
Te5593  Te  0.932188  0.395107  0.500000
Mo2797  Mo  0.935976  0.401686  0.482988
Te5594  Te  0.932188  0.395107  0.465975
Te5595  Te  0.943552  0.401686  0.500000
Mo2798  Mo  0.947339  0.395107  0.482988
Te5596  Te  0.943552  0.401686  0.465975
Te5597  Te  0.932188  0.408265  0.500000
Mo2799  Mo  0.935976  0.414844  0.482988
Te5598  Te  0.932188  0.408265  0.465975
Te5599  Te  0.943552  0.414844  0.500000
Mo2800  Mo  0.947339  0.408265  0.482988
Te5600  Te  0.943552  0.414844  0.465975
Te5601  Te  0.954915  0.368792  0.500000
Mo2801  Mo  0.958703  0.375371  0.482988
Te5602  Te  0.954915  0.368792  0.465975
Te5603  Te  0.966279  0.375371  0.500000
Mo2802  Mo  0.970067  0.368792  0.482988
Te5604  Te  0.966279  0.375371  0.465975
Te5605  Te  0.954915  0.381950  0.500000
Mo2803  Mo  0.958703  0.388529  0.482988
Te5606  Te  0.954915  0.381950  0.465975
Te5607  Te  0.966279  0.388529  0.500000
Mo2804  Mo  0.970067  0.381950  0.482988
Te5608  Te  0.966279  0.388529  0.465975
Te5609  Te  0.954915  0.395107  0.500000
Mo2805  Mo  0.958703  0.401686  0.482988
Te5610  Te  0.954915  0.395107  0.465975
Te5611  Te  0.966279  0.401686  0.500000
Mo2806  Mo  0.970067  0.395107  0.482988
Te5612  Te  0.966279  0.401686  0.465975
Te5613  Te  0.954915  0.408265  0.500000
Mo2807  Mo  0.958703  0.414844  0.482988
Te5614  Te  0.954915  0.408265  0.465975
Te5615  Te  0.966279  0.414844  0.500000
Mo2808  Mo  0.970067  0.408265  0.482988
Te5616  Te  0.966279  0.414844  0.465975
Te5617  Te  0.977642  0.368792  0.500000
Mo2809  Mo  0.981430  0.375371  0.482988
Te5618  Te  0.977642  0.368792  0.465975
Te5619  Te  0.989006  0.375371  0.500000
Mo2810  Mo  0.992794  0.368792  0.482988
Te5620  Te  0.989006  0.375371  0.465975
Te5621  Te  0.977642  0.381950  0.500000
Mo2811  Mo  0.981430  0.388529  0.482988
Te5622  Te  0.977642  0.381950  0.465975
Te5623  Te  0.989006  0.388529  0.500000
Mo2812  Mo  0.992794  0.381950  0.482988
Te5624  Te  0.989006  0.388529  0.465975
Te5625  Te  0.977642  0.395107  0.500000
Mo2813  Mo  0.981430  0.401686  0.482988
Te5626  Te  0.977642  0.395107  0.465975
Te5627  Te  0.989006  0.401686  0.500000
Mo2814  Mo  0.992794  0.395107  0.482988
Te5628  Te  0.989006  0.401686  0.465975
Te5629  Te  0.977642  0.408265  0.500000
Mo2815  Mo  0.981430  0.414844  0.482988
Te5630  Te  0.977642  0.408265  0.465975
Te5631  Te  0.989006  0.414844  0.500000
Mo2816  Mo  0.992794  0.408265  0.482988
Te5632  Te  0.989006  0.414844  0.465975
Te5633  Te  0.000370  0.421423  0.500000
Mo2817  Mo  0.004158  0.428002  0.482988
Te5634  Te  0.000370  0.421423  0.465975
Te5635  Te  0.011733  0.428002  0.500000
Mo2818  Mo  0.015521  0.421423  0.482988
Te5636  Te  0.011733  0.428002  0.465975
Te5637  Te  0.000370  0.434581  0.500000
Mo2819  Mo  0.004158  0.441160  0.482988
Te5638  Te  0.000370  0.434581  0.465975
Te5639  Te  0.011733  0.441160  0.500000
Mo2820  Mo  0.015521  0.434581  0.482988
Te5640  Te  0.011733  0.441160  0.465975
Te5641  Te  0.000370  0.447739  0.500000
Mo2821  Mo  0.004158  0.454318  0.482988
Te5642  Te  0.000370  0.447739  0.465975
Te5643  Te  0.011733  0.454318  0.500000
Mo2822  Mo  0.015521  0.447739  0.482988
Te5644  Te  0.011733  0.454318  0.465975
Te5645  Te  0.000370  0.460897  0.500000
Mo2823  Mo  0.004158  0.467476  0.482988
Te5646  Te  0.000370  0.460897  0.465975
Te5647  Te  0.011733  0.467476  0.500000
Mo2824  Mo  0.015521  0.460897  0.482988
Te5648  Te  0.011733  0.467476  0.465975
Te5649  Te  0.023097  0.421423  0.500000
Mo2825  Mo  0.026885  0.428002  0.482988
Te5650  Te  0.023097  0.421423  0.465975
Te5651  Te  0.034461  0.428002  0.500000
Mo2826  Mo  0.038249  0.421423  0.482988
Te5652  Te  0.034461  0.428002  0.465975
Te5653  Te  0.023097  0.434581  0.500000
Mo2827  Mo  0.026885  0.441160  0.482988
Te5654  Te  0.023097  0.434581  0.465975
Te5655  Te  0.034461  0.441160  0.500000
Mo2828  Mo  0.038249  0.434581  0.482988
Te5656  Te  0.034461  0.441160  0.465975
Te5657  Te  0.023097  0.447739  0.500000
Mo2829  Mo  0.026885  0.454318  0.482988
Te5658  Te  0.023097  0.447739  0.465975
Te5659  Te  0.034461  0.454318  0.500000
Mo2830  Mo  0.038249  0.447739  0.482988
Te5660  Te  0.034461  0.454318  0.465975
Te5661  Te  0.023097  0.460897  0.500000
Mo2831  Mo  0.026885  0.467476  0.482988
Te5662  Te  0.023097  0.460897  0.465975
Te5663  Te  0.034461  0.467476  0.500000
Mo2832  Mo  0.038249  0.460897  0.482988
Te5664  Te  0.034461  0.467476  0.465975
Te5665  Te  0.045824  0.421423  0.500000
Mo2833  Mo  0.049612  0.428002  0.482988
Te5666  Te  0.045824  0.421423  0.465975
Te5667  Te  0.057188  0.428002  0.500000
Mo2834  Mo  0.060976  0.421423  0.482988
Te5668  Te  0.057188  0.428002  0.465975
Te5669  Te  0.045824  0.434581  0.500000
Mo2835  Mo  0.049612  0.441160  0.482988
Te5670  Te  0.045824  0.434581  0.465975
Te5671  Te  0.057188  0.441160  0.500000
Mo2836  Mo  0.060976  0.434581  0.482988
Te5672  Te  0.057188  0.441160  0.465975
Te5673  Te  0.045824  0.447739  0.500000
Mo2837  Mo  0.049612  0.454318  0.482988
Te5674  Te  0.045824  0.447739  0.465975
Te5675  Te  0.057188  0.454318  0.500000
Mo2838  Mo  0.060976  0.447739  0.482988
Te5676  Te  0.057188  0.454318  0.465975
Te5677  Te  0.045824  0.460897  0.500000
Mo2839  Mo  0.049612  0.467476  0.482988
Te5678  Te  0.045824  0.460897  0.465975
Te5679  Te  0.057188  0.467476  0.500000
Mo2840  Mo  0.060976  0.460897  0.482988
Te5680  Te  0.057188  0.467476  0.465975
Te5681  Te  0.068552  0.421423  0.500000
Mo2841  Mo  0.072339  0.428002  0.482988
Te5682  Te  0.068552  0.421423  0.465975
Te5683  Te  0.079915  0.428002  0.500000
Mo2842  Mo  0.083703  0.421423  0.482988
Te5684  Te  0.079915  0.428002  0.465975
Te5685  Te  0.068552  0.434581  0.500000
Mo2843  Mo  0.072339  0.441160  0.482988
Te5686  Te  0.068552  0.434581  0.465975
Te5687  Te  0.079915  0.441160  0.500000
Mo2844  Mo  0.083703  0.434581  0.482988
Te5688  Te  0.079915  0.441160  0.465975
Te5689  Te  0.068552  0.447739  0.500000
Mo2845  Mo  0.072339  0.454318  0.482988
Te5690  Te  0.068552  0.447739  0.465975
Te5691  Te  0.079915  0.454318  0.500000
Mo2846  Mo  0.083703  0.447739  0.482988
Te5692  Te  0.079915  0.454318  0.465975
Te5693  Te  0.068552  0.460897  0.500000
Mo2847  Mo  0.072339  0.467476  0.482988
Te5694  Te  0.068552  0.460897  0.465975
Te5695  Te  0.079915  0.467476  0.500000
Mo2848  Mo  0.083703  0.460897  0.482988
Te5696  Te  0.079915  0.467476  0.465975
Te5697  Te  0.091279  0.421423  0.500000
Mo2849  Mo  0.095067  0.428002  0.482988
Te5698  Te  0.091279  0.421423  0.465975
Te5699  Te  0.102642  0.428002  0.500000
Mo2850  Mo  0.106430  0.421423  0.482988
Te5700  Te  0.102642  0.428002  0.465975
Te5701  Te  0.091279  0.434581  0.500000
Mo2851  Mo  0.095067  0.441160  0.482988
Te5702  Te  0.091279  0.434581  0.465975
Te5703  Te  0.102642  0.441160  0.500000
Mo2852  Mo  0.106430  0.434581  0.482988
Te5704  Te  0.102642  0.441160  0.465975
Te5705  Te  0.091279  0.447739  0.500000
Mo2853  Mo  0.095067  0.454318  0.482988
Te5706  Te  0.091279  0.447739  0.465975
Te5707  Te  0.102642  0.454318  0.500000
Mo2854  Mo  0.106430  0.447739  0.482988
Te5708  Te  0.102642  0.454318  0.465975
Te5709  Te  0.091279  0.460897  0.500000
Mo2855  Mo  0.095067  0.467476  0.482988
Te5710  Te  0.091279  0.460897  0.465975
Te5711  Te  0.102642  0.467476  0.500000
Mo2856  Mo  0.106430  0.460897  0.482988
Te5712  Te  0.102642  0.467476  0.465975
Te5713  Te  0.114006  0.421423  0.500000
Mo2857  Mo  0.117794  0.428002  0.482988
Te5714  Te  0.114006  0.421423  0.465975
Te5715  Te  0.125370  0.428002  0.500000
Mo2858  Mo  0.129158  0.421423  0.482988
Te5716  Te  0.125370  0.428002  0.465975
Te5717  Te  0.114006  0.434581  0.500000
Mo2859  Mo  0.117794  0.441160  0.482988
Te5718  Te  0.114006  0.434581  0.465975
Te5719  Te  0.125370  0.441160  0.500000
Mo2860  Mo  0.129158  0.434581  0.482988
Te5720  Te  0.125370  0.441160  0.465975
Te5721  Te  0.114006  0.447739  0.500000
Mo2861  Mo  0.117794  0.454318  0.482988
Te5722  Te  0.114006  0.447739  0.465975
Te5723  Te  0.125370  0.454318  0.500000
Mo2862  Mo  0.129158  0.447739  0.482988
Te5724  Te  0.125370  0.454318  0.465975
Te5725  Te  0.114006  0.460897  0.500000
Mo2863  Mo  0.117794  0.467476  0.482988
Te5726  Te  0.114006  0.460897  0.465975
Te5727  Te  0.125370  0.467476  0.500000
Mo2864  Mo  0.129158  0.460897  0.482988
Te5728  Te  0.125370  0.467476  0.465975
Te5729  Te  0.136733  0.421423  0.500000
Mo2865  Mo  0.140521  0.428002  0.482988
Te5730  Te  0.136733  0.421423  0.465975
Te5731  Te  0.148097  0.428002  0.500000
Mo2866  Mo  0.151885  0.421423  0.482988
Te5732  Te  0.148097  0.428002  0.465975
Te5733  Te  0.136733  0.434581  0.500000
Mo2867  Mo  0.140521  0.441160  0.482988
Te5734  Te  0.136733  0.434581  0.465975
Te5735  Te  0.148097  0.441160  0.500000
Mo2868  Mo  0.151885  0.434581  0.482988
Te5736  Te  0.148097  0.441160  0.465975
Te5737  Te  0.136733  0.447739  0.500000
Mo2869  Mo  0.140521  0.454318  0.482988
Te5738  Te  0.136733  0.447739  0.465975
Te5739  Te  0.148097  0.454318  0.500000
Mo2870  Mo  0.151885  0.447739  0.482988
Te5740  Te  0.148097  0.454318  0.465975
Te5741  Te  0.136733  0.460897  0.500000
Mo2871  Mo  0.140521  0.467476  0.482988
Te5742  Te  0.136733  0.460897  0.465975
Te5743  Te  0.148097  0.467476  0.500000
Mo2872  Mo  0.151885  0.460897  0.482988
Te5744  Te  0.148097  0.467476  0.465975
Te5745  Te  0.159461  0.421423  0.500000
Mo2873  Mo  0.163248  0.428002  0.482988
Te5746  Te  0.159461  0.421423  0.465975
Te5747  Te  0.170824  0.428002  0.500000
Mo2874  Mo  0.174612  0.421423  0.482988
Te5748  Te  0.170824  0.428002  0.465975
Te5749  Te  0.159461  0.434581  0.500000
Mo2875  Mo  0.163248  0.441160  0.482988
Te5750  Te  0.159461  0.434581  0.465975
Te5751  Te  0.170824  0.441160  0.500000
Mo2876  Mo  0.174612  0.434581  0.482988
Te5752  Te  0.170824  0.441160  0.465975
Te5753  Te  0.159461  0.447739  0.500000
Mo2877  Mo  0.163248  0.454318  0.482988
Te5754  Te  0.159461  0.447739  0.465975
Te5755  Te  0.170824  0.454318  0.500000
Mo2878  Mo  0.174612  0.447739  0.482988
Te5756  Te  0.170824  0.454318  0.465975
Te5757  Te  0.159461  0.460897  0.500000
Mo2879  Mo  0.163248  0.467476  0.482988
Te5758  Te  0.159461  0.460897  0.465975
Te5759  Te  0.170824  0.467476  0.500000
Mo2880  Mo  0.174612  0.460897  0.482988
Te5760  Te  0.170824  0.467476  0.465975
Te5761  Te  0.182188  0.421423  0.500000
Mo2881  Mo  0.185976  0.428002  0.482988
Te5762  Te  0.182188  0.421423  0.465975
Te5763  Te  0.193551  0.428002  0.500000
Mo2882  Mo  0.197339  0.421423  0.482988
Te5764  Te  0.193551  0.428002  0.465975
Te5765  Te  0.182188  0.434581  0.500000
Mo2883  Mo  0.185976  0.441160  0.482988
Te5766  Te  0.182188  0.434581  0.465975
Te5767  Te  0.193551  0.441160  0.500000
Mo2884  Mo  0.197339  0.434581  0.482988
Te5768  Te  0.193551  0.441160  0.465975
Te5769  Te  0.182188  0.447739  0.500000
Mo2885  Mo  0.185976  0.454318  0.482988
Te5770  Te  0.182188  0.447739  0.465975
Te5771  Te  0.193551  0.454318  0.500000
Mo2886  Mo  0.197339  0.447739  0.482988
Te5772  Te  0.193551  0.454318  0.465975
Te5773  Te  0.182188  0.460897  0.500000
Mo2887  Mo  0.185976  0.467476  0.482988
Te5774  Te  0.182188  0.460897  0.465975
Te5775  Te  0.193551  0.467476  0.500000
Mo2888  Mo  0.197339  0.460897  0.482988
Te5776  Te  0.193551  0.467476  0.465975
Te5777  Te  0.204915  0.421423  0.500000
Mo2889  Mo  0.208703  0.428002  0.482988
Te5778  Te  0.204915  0.421423  0.465975
Te5779  Te  0.216279  0.428002  0.500000
Mo2890  Mo  0.220067  0.421423  0.482988
Te5780  Te  0.216279  0.428002  0.465975
Te5781  Te  0.204915  0.434581  0.500000
Mo2891  Mo  0.208703  0.441160  0.482988
Te5782  Te  0.204915  0.434581  0.465975
Te5783  Te  0.216279  0.441160  0.500000
Mo2892  Mo  0.220067  0.434581  0.482988
Te5784  Te  0.216279  0.441160  0.465975
Te5785  Te  0.204915  0.447739  0.500000
Mo2893  Mo  0.208703  0.454318  0.482988
Te5786  Te  0.204915  0.447739  0.465975
Te5787  Te  0.216279  0.454318  0.500000
Mo2894  Mo  0.220067  0.447739  0.482988
Te5788  Te  0.216279  0.454318  0.465975
Te5789  Te  0.204915  0.460897  0.500000
Mo2895  Mo  0.208703  0.467476  0.482988
Te5790  Te  0.204915  0.460897  0.465975
Te5791  Te  0.216279  0.467476  0.500000
Mo2896  Mo  0.220067  0.460897  0.482988
Te5792  Te  0.216279  0.467476  0.465975
Te5793  Te  0.227642  0.421423  0.500000
Mo2897  Mo  0.231430  0.428002  0.482988
Te5794  Te  0.227642  0.421423  0.465975
Te5795  Te  0.239006  0.428002  0.500000
Mo2898  Mo  0.242794  0.421423  0.482988
Te5796  Te  0.239006  0.428002  0.465975
Te5797  Te  0.227642  0.434581  0.500000
Mo2899  Mo  0.231430  0.441160  0.482988
Te5798  Te  0.227642  0.434581  0.465975
Te5799  Te  0.239006  0.441160  0.500000
Mo2900  Mo  0.242794  0.434581  0.482988
Te5800  Te  0.239006  0.441160  0.465975
Te5801  Te  0.227642  0.447739  0.500000
Mo2901  Mo  0.231430  0.454318  0.482988
Te5802  Te  0.227642  0.447739  0.465975
Te5803  Te  0.239006  0.454318  0.500000
Mo2902  Mo  0.242794  0.447739  0.482988
Te5804  Te  0.239006  0.454318  0.465975
Te5805  Te  0.227642  0.460897  0.500000
Mo2903  Mo  0.231430  0.467476  0.482988
Te5806  Te  0.227642  0.460897  0.465975
Te5807  Te  0.239006  0.467476  0.500000
Mo2904  Mo  0.242794  0.460897  0.482988
Te5808  Te  0.239006  0.467476  0.465975
Te5809  Te  0.250370  0.421423  0.500000
Mo2905  Mo  0.254158  0.428002  0.482988
Te5810  Te  0.250370  0.421423  0.465975
Te5811  Te  0.261733  0.428002  0.500000
Mo2906  Mo  0.265521  0.421423  0.482988
Te5812  Te  0.261733  0.428002  0.465975
Te5813  Te  0.250370  0.434581  0.500000
Mo2907  Mo  0.254158  0.441160  0.482988
Te5814  Te  0.250370  0.434581  0.465975
Te5815  Te  0.261733  0.441160  0.500000
Mo2908  Mo  0.265521  0.434581  0.482988
Te5816  Te  0.261733  0.441160  0.465975
Te5817  Te  0.250370  0.447739  0.500000
Mo2909  Mo  0.254158  0.454318  0.482988
Te5818  Te  0.250370  0.447739  0.465975
Te5819  Te  0.261733  0.454318  0.500000
Mo2910  Mo  0.265521  0.447739  0.482988
Te5820  Te  0.261733  0.454318  0.465975
Te5821  Te  0.250370  0.460897  0.500000
Mo2911  Mo  0.254158  0.467476  0.482988
Te5822  Te  0.250370  0.460897  0.465975
Te5823  Te  0.261733  0.467476  0.500000
Mo2912  Mo  0.265521  0.460897  0.482988
Te5824  Te  0.261733  0.467476  0.465975
Te5825  Te  0.273097  0.421423  0.500000
Mo2913  Mo  0.276885  0.428002  0.482988
Te5826  Te  0.273097  0.421423  0.465975
Te5827  Te  0.284461  0.428002  0.500000
Mo2914  Mo  0.288248  0.421423  0.482988
Te5828  Te  0.284461  0.428002  0.465975
Te5829  Te  0.273097  0.434581  0.500000
Mo2915  Mo  0.276885  0.441160  0.482988
Te5830  Te  0.273097  0.434581  0.465975
Te5831  Te  0.284461  0.441160  0.500000
Mo2916  Mo  0.288248  0.434581  0.482988
Te5832  Te  0.284461  0.441160  0.465975
Te5833  Te  0.273097  0.447739  0.500000
Mo2917  Mo  0.276885  0.454318  0.482988
Te5834  Te  0.273097  0.447739  0.465975
Te5835  Te  0.284461  0.454318  0.500000
Mo2918  Mo  0.288248  0.447739  0.482988
Te5836  Te  0.284461  0.454318  0.465975
Te5837  Te  0.273097  0.460897  0.500000
Mo2919  Mo  0.276885  0.467476  0.482988
Te5838  Te  0.273097  0.460897  0.465975
Te5839  Te  0.284461  0.467476  0.500000
Mo2920  Mo  0.288248  0.460897  0.482988
Te5840  Te  0.284461  0.467476  0.465975
Te5841  Te  0.295824  0.421423  0.500000
Mo2921  Mo  0.299612  0.428002  0.482988
Te5842  Te  0.295824  0.421423  0.465975
Te5843  Te  0.307188  0.428002  0.500000
Mo2922  Mo  0.310976  0.421423  0.482988
Te5844  Te  0.307188  0.428002  0.465975
Te5845  Te  0.295824  0.434581  0.500000
Mo2923  Mo  0.299612  0.441160  0.482988
Te5846  Te  0.295824  0.434581  0.465975
Te5847  Te  0.307188  0.441160  0.500000
Mo2924  Mo  0.310976  0.434581  0.482988
Te5848  Te  0.307188  0.441160  0.465975
Te5849  Te  0.295824  0.447739  0.500000
Mo2925  Mo  0.299612  0.454318  0.482988
Te5850  Te  0.295824  0.447739  0.465975
Te5851  Te  0.307188  0.454318  0.500000
Mo2926  Mo  0.310976  0.447739  0.482988
Te5852  Te  0.307188  0.454318  0.465975
Te5853  Te  0.295824  0.460897  0.500000
Mo2927  Mo  0.299612  0.467476  0.482988
Te5854  Te  0.295824  0.460897  0.465975
Te5855  Te  0.307188  0.467476  0.500000
Mo2928  Mo  0.310976  0.460897  0.482988
Te5856  Te  0.307188  0.467476  0.465975
Te5857  Te  0.318551  0.421423  0.500000
Mo2929  Mo  0.322339  0.428002  0.482988
Te5858  Te  0.318551  0.421423  0.465975
Te5859  Te  0.329915  0.428002  0.500000
Mo2930  Mo  0.333703  0.421423  0.482988
Te5860  Te  0.329915  0.428002  0.465975
Te5861  Te  0.318551  0.434581  0.500000
Mo2931  Mo  0.322339  0.441160  0.482988
Te5862  Te  0.318551  0.434581  0.465975
Te5863  Te  0.329915  0.441160  0.500000
Mo2932  Mo  0.333703  0.434581  0.482988
Te5864  Te  0.329915  0.441160  0.465975
Te5865  Te  0.318551  0.447739  0.500000
Mo2933  Mo  0.322339  0.454318  0.482988
Te5866  Te  0.318551  0.447739  0.465975
Te5867  Te  0.329915  0.454318  0.500000
Mo2934  Mo  0.333703  0.447739  0.482988
Te5868  Te  0.329915  0.454318  0.465975
Te5869  Te  0.318551  0.460897  0.500000
Mo2935  Mo  0.322339  0.467476  0.482988
Te5870  Te  0.318551  0.460897  0.465975
Te5871  Te  0.329915  0.467476  0.500000
Mo2936  Mo  0.333703  0.460897  0.482988
Te5872  Te  0.329915  0.467476  0.465975
Te5873  Te  0.341279  0.421423  0.500000
Mo2937  Mo  0.345067  0.428002  0.482988
Te5874  Te  0.341279  0.421423  0.465975
Te5875  Te  0.352642  0.428002  0.500000
Mo2938  Mo  0.356430  0.421423  0.482988
Te5876  Te  0.352642  0.428002  0.465975
Te5877  Te  0.341279  0.434581  0.500000
Mo2939  Mo  0.345067  0.441160  0.482988
Te5878  Te  0.341279  0.434581  0.465975
Te5879  Te  0.352642  0.441160  0.500000
Mo2940  Mo  0.356430  0.434581  0.482988
Te5880  Te  0.352642  0.441160  0.465975
Te5881  Te  0.341279  0.447739  0.500000
Mo2941  Mo  0.345067  0.454318  0.482988
Te5882  Te  0.341279  0.447739  0.465975
Te5883  Te  0.352642  0.454318  0.500000
Mo2942  Mo  0.356430  0.447739  0.482988
Te5884  Te  0.352642  0.454318  0.465975
Te5885  Te  0.341279  0.460897  0.500000
Mo2943  Mo  0.345067  0.467476  0.482988
Te5886  Te  0.341279  0.460897  0.465975
Te5887  Te  0.352642  0.467476  0.500000
Mo2944  Mo  0.356430  0.460897  0.482988
Te5888  Te  0.352642  0.467476  0.465975
Te5889  Te  0.364006  0.421423  0.500000
Mo2945  Mo  0.367794  0.428002  0.482988
Te5890  Te  0.364006  0.421423  0.465975
Te5891  Te  0.375370  0.428002  0.500000
Mo2946  Mo  0.379158  0.421423  0.482988
Te5892  Te  0.375370  0.428002  0.465975
Te5893  Te  0.364006  0.434581  0.500000
Mo2947  Mo  0.367794  0.441160  0.482988
Te5894  Te  0.364006  0.434581  0.465975
Te5895  Te  0.375370  0.441160  0.500000
Mo2948  Mo  0.379158  0.434581  0.482988
Te5896  Te  0.375370  0.441160  0.465975
Te5897  Te  0.364006  0.447739  0.500000
Mo2949  Mo  0.367794  0.454318  0.482988
Te5898  Te  0.364006  0.447739  0.465975
Te5899  Te  0.375370  0.454318  0.500000
Mo2950  Mo  0.379158  0.447739  0.482988
Te5900  Te  0.375370  0.454318  0.465975
Te5901  Te  0.364006  0.460897  0.500000
Mo2951  Mo  0.367794  0.467476  0.482988
Te5902  Te  0.364006  0.460897  0.465975
Te5903  Te  0.375370  0.467476  0.500000
Mo2952  Mo  0.379158  0.460897  0.482988
Te5904  Te  0.375370  0.467476  0.465975
Te5905  Te  0.386733  0.421423  0.500000
Mo2953  Mo  0.390521  0.428002  0.482988
Te5906  Te  0.386733  0.421423  0.465975
Te5907  Te  0.398097  0.428002  0.500000
Mo2954  Mo  0.401885  0.421423  0.482988
Te5908  Te  0.398097  0.428002  0.465975
Te5909  Te  0.386733  0.434581  0.500000
Mo2955  Mo  0.390521  0.441160  0.482988
Te5910  Te  0.386733  0.434581  0.465975
Te5911  Te  0.398097  0.441160  0.500000
Mo2956  Mo  0.401885  0.434581  0.482988
Te5912  Te  0.398097  0.441160  0.465975
Te5913  Te  0.386733  0.447739  0.500000
Mo2957  Mo  0.390521  0.454318  0.482988
Te5914  Te  0.386733  0.447739  0.465975
Te5915  Te  0.398097  0.454318  0.500000
Mo2958  Mo  0.401885  0.447739  0.482988
Te5916  Te  0.398097  0.454318  0.465975
Te5917  Te  0.386733  0.460897  0.500000
Mo2959  Mo  0.390521  0.467476  0.482988
Te5918  Te  0.386733  0.460897  0.465975
Te5919  Te  0.398097  0.467476  0.500000
Mo2960  Mo  0.401885  0.460897  0.482988
Te5920  Te  0.398097  0.467476  0.465975
Te5921  Te  0.409461  0.421423  0.500000
Mo2961  Mo  0.413248  0.428002  0.482988
Te5922  Te  0.409461  0.421423  0.465975
Te5923  Te  0.420824  0.428002  0.500000
Mo2962  Mo  0.424612  0.421423  0.482988
Te5924  Te  0.420824  0.428002  0.465975
Te5925  Te  0.409461  0.434581  0.500000
Mo2963  Mo  0.413248  0.441160  0.482988
Te5926  Te  0.409461  0.434581  0.465975
Te5927  Te  0.420824  0.441160  0.500000
Mo2964  Mo  0.424612  0.434581  0.482988
Te5928  Te  0.420824  0.441160  0.465975
Te5929  Te  0.409461  0.447739  0.500000
Mo2965  Mo  0.413248  0.454318  0.482988
Te5930  Te  0.409461  0.447739  0.465975
Te5931  Te  0.420824  0.454318  0.500000
Mo2966  Mo  0.424612  0.447739  0.482988
Te5932  Te  0.420824  0.454318  0.465975
Te5933  Te  0.409461  0.460897  0.500000
Mo2967  Mo  0.413248  0.467476  0.482988
Te5934  Te  0.409461  0.460897  0.465975
Te5935  Te  0.420824  0.467476  0.500000
Mo2968  Mo  0.424612  0.460897  0.482988
Te5936  Te  0.420824  0.467476  0.465975
Te5937  Te  0.432188  0.421423  0.500000
Mo2969  Mo  0.435976  0.428002  0.482988
Te5938  Te  0.432188  0.421423  0.465975
Te5939  Te  0.443552  0.428002  0.500000
Mo2970  Mo  0.447339  0.421423  0.482988
Te5940  Te  0.443552  0.428002  0.465975
Te5941  Te  0.432188  0.434581  0.500000
Mo2971  Mo  0.435976  0.441160  0.482988
Te5942  Te  0.432188  0.434581  0.465975
Te5943  Te  0.443552  0.441160  0.500000
Mo2972  Mo  0.447339  0.434581  0.482988
Te5944  Te  0.443552  0.441160  0.465975
Te5945  Te  0.432188  0.447739  0.500000
Te5946  Te  0.432188  0.447739  0.465975
Mo2973  Mo  0.447339  0.447739  0.482988
Te5947  Te  0.432188  0.460897  0.500000
Mo2974  Mo  0.435976  0.467476  0.482988
Te5948  Te  0.432188  0.460897  0.465975
Te5949  Te  0.454915  0.421423  0.500000
Mo2975  Mo  0.458703  0.428002  0.482988
Te5950  Te  0.454915  0.421423  0.465975
Te5951  Te  0.466279  0.428002  0.500000
Mo2976  Mo  0.470067  0.421423  0.482988
Te5952  Te  0.466279  0.428002  0.465975
Te5953  Te  0.454915  0.434581  0.500000
Mo2977  Mo  0.458703  0.441160  0.482988
Te5954  Te  0.454915  0.434581  0.465975
Te5955  Te  0.466279  0.441160  0.500000
Mo2978  Mo  0.470067  0.434581  0.482988
Te5956  Te  0.466279  0.441160  0.465975
Te5957  Te  0.454915  0.447739  0.500000
Te5958  Te  0.454915  0.447739  0.465975
Mo2979  Mo  0.470067  0.447739  0.482988
Te5959  Te  0.477642  0.421423  0.500000
Mo2980  Mo  0.481430  0.428002  0.482988
Te5960  Te  0.477642  0.421423  0.465975
Te5961  Te  0.489006  0.428002  0.500000
Mo2981  Mo  0.492794  0.421423  0.482988
Te5962  Te  0.489006  0.428002  0.465975
Te5963  Te  0.477642  0.434581  0.500000
Mo2982  Mo  0.481430  0.441160  0.482988
Te5964  Te  0.477642  0.434581  0.465975
Te5965  Te  0.489006  0.441160  0.500000
Mo2983  Mo  0.492794  0.434581  0.482988
Te5966  Te  0.489006  0.441160  0.465975
Te5967  Te  0.477642  0.447739  0.465975
Mo2984  Mo  0.492794  0.447739  0.482988
Te5968  Te  0.500370  0.421423  0.500000
Mo2985  Mo  0.504158  0.428002  0.482988
Te5969  Te  0.500370  0.421423  0.465975
Te5970  Te  0.511733  0.428002  0.500000
Mo2986  Mo  0.515521  0.421423  0.482988
Te5971  Te  0.511733  0.428002  0.465975
Te5972  Te  0.500370  0.434581  0.500000
Mo2987  Mo  0.504158  0.441160  0.482988
Te5973  Te  0.500370  0.434581  0.465975
Te5974  Te  0.511733  0.441160  0.500000
Mo2988  Mo  0.515521  0.434581  0.482988
Te5975  Te  0.511733  0.441160  0.465975
Te5976  Te  0.500370  0.447739  0.500000
Te5977  Te  0.500370  0.447739  0.465975
Mo2989  Mo  0.515521  0.447739  0.482988
Te5978  Te  0.523097  0.421423  0.500000
Mo2990  Mo  0.526885  0.428002  0.482988
Te5979  Te  0.523097  0.421423  0.465975
Te5980  Te  0.534461  0.428002  0.500000
Mo2991  Mo  0.538249  0.421423  0.482988
Te5981  Te  0.534461  0.428002  0.465975
Te5982  Te  0.523097  0.434581  0.500000
Mo2992  Mo  0.526885  0.441160  0.482988
Te5983  Te  0.523097  0.434581  0.465975
Te5984  Te  0.534461  0.441160  0.500000
Mo2993  Mo  0.538249  0.434581  0.482988
Te5985  Te  0.534461  0.441160  0.465975
Te5986  Te  0.523097  0.447739  0.465975
Mo2994  Mo  0.538249  0.447739  0.482988
Te5987  Te  0.545824  0.421423  0.500000
Mo2995  Mo  0.549612  0.428002  0.482988
Te5988  Te  0.545824  0.421423  0.465975
Te5989  Te  0.557188  0.428002  0.500000
Mo2996  Mo  0.560976  0.421423  0.482988
Te5990  Te  0.557188  0.428002  0.465975
Te5991  Te  0.545824  0.434581  0.500000
Mo2997  Mo  0.549612  0.441160  0.482988
Te5992  Te  0.545824  0.434581  0.465975
Te5993  Te  0.557188  0.441160  0.500000
Mo2998  Mo  0.560976  0.434581  0.482988
Te5994  Te  0.557188  0.441160  0.465975
Te5995  Te  0.545824  0.447739  0.500000
Te5996  Te  0.545824  0.447739  0.465975
Mo2999  Mo  0.560976  0.447739  0.482988
Te5997  Te  0.557188  0.467476  0.500000
Te5998  Te  0.557188  0.467476  0.465975
Te5999  Te  0.568552  0.421423  0.500000
Mo3000  Mo  0.572339  0.428002  0.482988
Te6000  Te  0.568552  0.421423  0.465975
Te6001  Te  0.579915  0.428002  0.500000
Mo3001  Mo  0.583703  0.421423  0.482988
Te6002  Te  0.579915  0.428002  0.465975
Te6003  Te  0.568552  0.434581  0.500000
Mo3002  Mo  0.572339  0.441160  0.482988
Te6004  Te  0.568552  0.434581  0.465975
Te6005  Te  0.579915  0.441160  0.500000
Mo3003  Mo  0.583703  0.434581  0.482988
Te6006  Te  0.579915  0.441160  0.465975
Te6007  Te  0.568552  0.447739  0.500000
Mo3004  Mo  0.572339  0.454318  0.482988
Te6008  Te  0.568552  0.447739  0.465975
Te6009  Te  0.579915  0.454318  0.500000
Mo3005  Mo  0.583703  0.447739  0.482988
Te6010  Te  0.579915  0.454318  0.465975
Te6011  Te  0.568552  0.460897  0.500000
Mo3006  Mo  0.572339  0.467476  0.482988
Te6012  Te  0.568552  0.460897  0.465975
Te6013  Te  0.579915  0.467476  0.500000
Mo3007  Mo  0.583703  0.460897  0.482988
Te6014  Te  0.579915  0.467476  0.465975
Te6015  Te  0.591279  0.421423  0.500000
Mo3008  Mo  0.595067  0.428002  0.482988
Te6016  Te  0.591279  0.421423  0.465975
Te6017  Te  0.602642  0.428002  0.500000
Mo3009  Mo  0.606430  0.421423  0.482988
Te6018  Te  0.602642  0.428002  0.465975
Te6019  Te  0.591279  0.434581  0.500000
Mo3010  Mo  0.595067  0.441160  0.482988
Te6020  Te  0.591279  0.434581  0.465975
Te6021  Te  0.602642  0.441160  0.500000
Mo3011  Mo  0.606430  0.434581  0.482988
Te6022  Te  0.602642  0.441160  0.465975
Te6023  Te  0.591279  0.447739  0.500000
Mo3012  Mo  0.595067  0.454318  0.482988
Te6024  Te  0.591279  0.447739  0.465975
Te6025  Te  0.602642  0.454318  0.500000
Mo3013  Mo  0.606430  0.447739  0.482988
Te6026  Te  0.602642  0.454318  0.465975
Te6027  Te  0.591279  0.460897  0.500000
Mo3014  Mo  0.595067  0.467476  0.482988
Te6028  Te  0.591279  0.460897  0.465975
Te6029  Te  0.602642  0.467476  0.500000
Mo3015  Mo  0.606430  0.460897  0.482988
Te6030  Te  0.602642  0.467476  0.465975
Te6031  Te  0.614006  0.421423  0.500000
Mo3016  Mo  0.617794  0.428002  0.482988
Te6032  Te  0.614006  0.421423  0.465975
Te6033  Te  0.625370  0.428002  0.500000
Mo3017  Mo  0.629158  0.421423  0.482988
Te6034  Te  0.625370  0.428002  0.465975
Te6035  Te  0.614006  0.434581  0.500000
Mo3018  Mo  0.617794  0.441160  0.482988
Te6036  Te  0.614006  0.434581  0.465975
Te6037  Te  0.625370  0.441160  0.500000
Mo3019  Mo  0.629158  0.434581  0.482988
Te6038  Te  0.625370  0.441160  0.465975
Te6039  Te  0.614006  0.447739  0.500000
Mo3020  Mo  0.617794  0.454318  0.482988
Te6040  Te  0.614006  0.447739  0.465975
Te6041  Te  0.625370  0.454318  0.500000
Mo3021  Mo  0.629158  0.447739  0.482988
Te6042  Te  0.625370  0.454318  0.465975
Te6043  Te  0.614006  0.460897  0.500000
Mo3022  Mo  0.617794  0.467476  0.482988
Te6044  Te  0.614006  0.460897  0.465975
Te6045  Te  0.625370  0.467476  0.500000
Mo3023  Mo  0.629158  0.460897  0.482988
Te6046  Te  0.625370  0.467476  0.465975
Te6047  Te  0.636733  0.421423  0.500000
Mo3024  Mo  0.640521  0.428002  0.482988
Te6048  Te  0.636733  0.421423  0.465975
Te6049  Te  0.648097  0.428002  0.500000
Mo3025  Mo  0.651885  0.421423  0.482988
Te6050  Te  0.648097  0.428002  0.465975
Te6051  Te  0.636733  0.434581  0.500000
Mo3026  Mo  0.640521  0.441160  0.482988
Te6052  Te  0.636733  0.434581  0.465975
Te6053  Te  0.648097  0.441160  0.500000
Mo3027  Mo  0.651885  0.434581  0.482988
Te6054  Te  0.648097  0.441160  0.465975
Te6055  Te  0.636733  0.447739  0.500000
Mo3028  Mo  0.640521  0.454318  0.482988
Te6056  Te  0.636733  0.447739  0.465975
Te6057  Te  0.648097  0.454318  0.500000
Mo3029  Mo  0.651885  0.447739  0.482988
Te6058  Te  0.648097  0.454318  0.465975
Te6059  Te  0.636733  0.460897  0.500000
Mo3030  Mo  0.640521  0.467476  0.482988
Te6060  Te  0.636733  0.460897  0.465975
Te6061  Te  0.648097  0.467476  0.500000
Mo3031  Mo  0.651885  0.460897  0.482988
Te6062  Te  0.648097  0.467476  0.465975
Te6063  Te  0.659461  0.421423  0.500000
Mo3032  Mo  0.663248  0.428002  0.482988
Te6064  Te  0.659461  0.421423  0.465975
Te6065  Te  0.670824  0.428002  0.500000
Mo3033  Mo  0.674612  0.421423  0.482988
Te6066  Te  0.670824  0.428002  0.465975
Te6067  Te  0.659461  0.434581  0.500000
Mo3034  Mo  0.663248  0.441160  0.482988
Te6068  Te  0.659461  0.434581  0.465975
Te6069  Te  0.670824  0.441160  0.500000
Mo3035  Mo  0.674612  0.434581  0.482988
Te6070  Te  0.670824  0.441160  0.465975
Te6071  Te  0.659461  0.447739  0.500000
Mo3036  Mo  0.663248  0.454318  0.482988
Te6072  Te  0.659461  0.447739  0.465975
Te6073  Te  0.670824  0.454318  0.500000
Mo3037  Mo  0.674612  0.447739  0.482988
Te6074  Te  0.670824  0.454318  0.465975
Te6075  Te  0.659461  0.460897  0.500000
Mo3038  Mo  0.663248  0.467476  0.482988
Te6076  Te  0.659461  0.460897  0.465975
Te6077  Te  0.670824  0.467476  0.500000
Mo3039  Mo  0.674612  0.460897  0.482988
Te6078  Te  0.670824  0.467476  0.465975
Te6079  Te  0.682188  0.421423  0.500000
Mo3040  Mo  0.685976  0.428002  0.482988
Te6080  Te  0.682188  0.421423  0.465975
Te6081  Te  0.693551  0.428002  0.500000
Mo3041  Mo  0.697339  0.421423  0.482988
Te6082  Te  0.693551  0.428002  0.465975
Te6083  Te  0.682188  0.434581  0.500000
Mo3042  Mo  0.685976  0.441160  0.482988
Te6084  Te  0.682188  0.434581  0.465975
Te6085  Te  0.693551  0.441160  0.500000
Mo3043  Mo  0.697339  0.434581  0.482988
Te6086  Te  0.693551  0.441160  0.465975
Te6087  Te  0.682188  0.447739  0.500000
Mo3044  Mo  0.685976  0.454318  0.482988
Te6088  Te  0.682188  0.447739  0.465975
Te6089  Te  0.693551  0.454318  0.500000
Mo3045  Mo  0.697339  0.447739  0.482988
Te6090  Te  0.693551  0.454318  0.465975
Te6091  Te  0.682188  0.460897  0.500000
Mo3046  Mo  0.685976  0.467476  0.482988
Te6092  Te  0.682188  0.460897  0.465975
Te6093  Te  0.693551  0.467476  0.500000
Mo3047  Mo  0.697339  0.460897  0.482988
Te6094  Te  0.693551  0.467476  0.465975
Te6095  Te  0.704915  0.421423  0.500000
Mo3048  Mo  0.708703  0.428002  0.482988
Te6096  Te  0.704915  0.421423  0.465975
Te6097  Te  0.716279  0.428002  0.500000
Mo3049  Mo  0.720067  0.421423  0.482988
Te6098  Te  0.716279  0.428002  0.465975
Te6099  Te  0.704915  0.434581  0.500000
Mo3050  Mo  0.708703  0.441160  0.482988
Te6100  Te  0.704915  0.434581  0.465975
Te6101  Te  0.716279  0.441160  0.500000
Mo3051  Mo  0.720067  0.434581  0.482988
Te6102  Te  0.716279  0.441160  0.465975
Te6103  Te  0.704915  0.447739  0.500000
Mo3052  Mo  0.708703  0.454318  0.482988
Te6104  Te  0.704915  0.447739  0.465975
Te6105  Te  0.716279  0.454318  0.500000
Mo3053  Mo  0.720067  0.447739  0.482988
Te6106  Te  0.716279  0.454318  0.465975
Te6107  Te  0.704915  0.460897  0.500000
Mo3054  Mo  0.708703  0.467476  0.482988
Te6108  Te  0.704915  0.460897  0.465975
Te6109  Te  0.716279  0.467476  0.500000
Mo3055  Mo  0.720067  0.460897  0.482988
Te6110  Te  0.716279  0.467476  0.465975
Te6111  Te  0.727642  0.421423  0.500000
Mo3056  Mo  0.731430  0.428002  0.482988
Te6112  Te  0.727642  0.421423  0.465975
Te6113  Te  0.739006  0.428002  0.500000
Mo3057  Mo  0.742794  0.421423  0.482988
Te6114  Te  0.739006  0.428002  0.465975
Te6115  Te  0.727642  0.434581  0.500000
Mo3058  Mo  0.731430  0.441160  0.482988
Te6116  Te  0.727642  0.434581  0.465975
Te6117  Te  0.739006  0.441160  0.500000
Mo3059  Mo  0.742794  0.434581  0.482988
Te6118  Te  0.739006  0.441160  0.465975
Te6119  Te  0.727642  0.447739  0.500000
Mo3060  Mo  0.731430  0.454318  0.482988
Te6120  Te  0.727642  0.447739  0.465975
Te6121  Te  0.739006  0.454318  0.500000
Mo3061  Mo  0.742794  0.447739  0.482988
Te6122  Te  0.739006  0.454318  0.465975
Te6123  Te  0.727642  0.460897  0.500000
Mo3062  Mo  0.731430  0.467476  0.482988
Te6124  Te  0.727642  0.460897  0.465975
Te6125  Te  0.739006  0.467476  0.500000
Mo3063  Mo  0.742794  0.460897  0.482988
Te6126  Te  0.739006  0.467476  0.465975
Te6127  Te  0.750370  0.421423  0.500000
Mo3064  Mo  0.754158  0.428002  0.482988
Te6128  Te  0.750370  0.421423  0.465975
Te6129  Te  0.761733  0.428002  0.500000
Mo3065  Mo  0.765521  0.421423  0.482988
Te6130  Te  0.761733  0.428002  0.465975
Te6131  Te  0.750370  0.434581  0.500000
Mo3066  Mo  0.754158  0.441160  0.482988
Te6132  Te  0.750370  0.434581  0.465975
Te6133  Te  0.761733  0.441160  0.500000
Mo3067  Mo  0.765521  0.434581  0.482988
Te6134  Te  0.761733  0.441160  0.465975
Te6135  Te  0.750370  0.447739  0.500000
Mo3068  Mo  0.754158  0.454318  0.482988
Te6136  Te  0.750370  0.447739  0.465975
Te6137  Te  0.761733  0.454318  0.500000
Mo3069  Mo  0.765521  0.447739  0.482988
Te6138  Te  0.761733  0.454318  0.465975
Te6139  Te  0.750370  0.460897  0.500000
Mo3070  Mo  0.754158  0.467476  0.482988
Te6140  Te  0.750370  0.460897  0.465975
Te6141  Te  0.761733  0.467476  0.500000
Mo3071  Mo  0.765521  0.460897  0.482988
Te6142  Te  0.761733  0.467476  0.465975
Te6143  Te  0.773097  0.421423  0.500000
Mo3072  Mo  0.776885  0.428002  0.482988
Te6144  Te  0.773097  0.421423  0.465975
Te6145  Te  0.784461  0.428002  0.500000
Mo3073  Mo  0.788248  0.421423  0.482988
Te6146  Te  0.784461  0.428002  0.465975
Te6147  Te  0.773097  0.434581  0.500000
Mo3074  Mo  0.776885  0.441160  0.482988
Te6148  Te  0.773097  0.434581  0.465975
Te6149  Te  0.784461  0.441160  0.500000
Mo3075  Mo  0.788248  0.434581  0.482988
Te6150  Te  0.784461  0.441160  0.465975
Te6151  Te  0.773097  0.447739  0.500000
Mo3076  Mo  0.776885  0.454318  0.482988
Te6152  Te  0.773097  0.447739  0.465975
Te6153  Te  0.784461  0.454318  0.500000
Mo3077  Mo  0.788248  0.447739  0.482988
Te6154  Te  0.784461  0.454318  0.465975
Te6155  Te  0.773097  0.460897  0.500000
Mo3078  Mo  0.776885  0.467476  0.482988
Te6156  Te  0.773097  0.460897  0.465975
Te6157  Te  0.784461  0.467476  0.500000
Mo3079  Mo  0.788248  0.460897  0.482988
Te6158  Te  0.784461  0.467476  0.465975
Te6159  Te  0.795824  0.421423  0.500000
Mo3080  Mo  0.799612  0.428002  0.482988
Te6160  Te  0.795824  0.421423  0.465975
Te6161  Te  0.807188  0.428002  0.500000
Mo3081  Mo  0.810976  0.421423  0.482988
Te6162  Te  0.807188  0.428002  0.465975
Te6163  Te  0.795824  0.434581  0.500000
Mo3082  Mo  0.799612  0.441160  0.482988
Te6164  Te  0.795824  0.434581  0.465975
Te6165  Te  0.807188  0.441160  0.500000
Mo3083  Mo  0.810976  0.434581  0.482988
Te6166  Te  0.807188  0.441160  0.465975
Te6167  Te  0.795824  0.447739  0.500000
Mo3084  Mo  0.799612  0.454318  0.482988
Te6168  Te  0.795824  0.447739  0.465975
Te6169  Te  0.807188  0.454318  0.500000
Mo3085  Mo  0.810976  0.447739  0.482988
Te6170  Te  0.807188  0.454318  0.465975
Te6171  Te  0.795824  0.460897  0.500000
Mo3086  Mo  0.799612  0.467476  0.482988
Te6172  Te  0.795824  0.460897  0.465975
Te6173  Te  0.807188  0.467476  0.500000
Mo3087  Mo  0.810976  0.460897  0.482988
Te6174  Te  0.807188  0.467476  0.465975
Te6175  Te  0.818551  0.421423  0.500000
Mo3088  Mo  0.822339  0.428002  0.482988
Te6176  Te  0.818551  0.421423  0.465975
Te6177  Te  0.829915  0.428002  0.500000
Mo3089  Mo  0.833703  0.421423  0.482988
Te6178  Te  0.829915  0.428002  0.465975
Te6179  Te  0.818551  0.434581  0.500000
Mo3090  Mo  0.822339  0.441160  0.482988
Te6180  Te  0.818551  0.434581  0.465975
Te6181  Te  0.829915  0.441160  0.500000
Mo3091  Mo  0.833703  0.434581  0.482988
Te6182  Te  0.829915  0.441160  0.465975
Te6183  Te  0.818551  0.447739  0.500000
Mo3092  Mo  0.822339  0.454318  0.482988
Te6184  Te  0.818551  0.447739  0.465975
Te6185  Te  0.829915  0.454318  0.500000
Mo3093  Mo  0.833703  0.447739  0.482988
Te6186  Te  0.829915  0.454318  0.465975
Te6187  Te  0.818551  0.460897  0.500000
Mo3094  Mo  0.822339  0.467476  0.482988
Te6188  Te  0.818551  0.460897  0.465975
Te6189  Te  0.829915  0.467476  0.500000
Mo3095  Mo  0.833703  0.460897  0.482988
Te6190  Te  0.829915  0.467476  0.465975
Te6191  Te  0.841279  0.421423  0.500000
Mo3096  Mo  0.845067  0.428002  0.482988
Te6192  Te  0.841279  0.421423  0.465975
Te6193  Te  0.852642  0.428002  0.500000
Mo3097  Mo  0.856430  0.421423  0.482988
Te6194  Te  0.852642  0.428002  0.465975
Te6195  Te  0.841279  0.434581  0.500000
Mo3098  Mo  0.845067  0.441160  0.482988
Te6196  Te  0.841279  0.434581  0.465975
Te6197  Te  0.852642  0.441160  0.500000
Mo3099  Mo  0.856430  0.434581  0.482988
Te6198  Te  0.852642  0.441160  0.465975
Te6199  Te  0.841279  0.447739  0.500000
Mo3100  Mo  0.845067  0.454318  0.482988
Te6200  Te  0.841279  0.447739  0.465975
Te6201  Te  0.852642  0.454318  0.500000
Mo3101  Mo  0.856430  0.447739  0.482988
Te6202  Te  0.852642  0.454318  0.465975
Te6203  Te  0.841279  0.460897  0.500000
Mo3102  Mo  0.845067  0.467476  0.482988
Te6204  Te  0.841279  0.460897  0.465975
Te6205  Te  0.852642  0.467476  0.500000
Mo3103  Mo  0.856430  0.460897  0.482988
Te6206  Te  0.852642  0.467476  0.465975
Te6207  Te  0.864006  0.421423  0.500000
Mo3104  Mo  0.867794  0.428002  0.482988
Te6208  Te  0.864006  0.421423  0.465975
Te6209  Te  0.875370  0.428002  0.500000
Mo3105  Mo  0.879158  0.421423  0.482988
Te6210  Te  0.875370  0.428002  0.465975
Te6211  Te  0.864006  0.434581  0.500000
Mo3106  Mo  0.867794  0.441160  0.482988
Te6212  Te  0.864006  0.434581  0.465975
Te6213  Te  0.875370  0.441160  0.500000
Mo3107  Mo  0.879158  0.434581  0.482988
Te6214  Te  0.875370  0.441160  0.465975
Te6215  Te  0.864006  0.447739  0.500000
Mo3108  Mo  0.867794  0.454318  0.482988
Te6216  Te  0.864006  0.447739  0.465975
Te6217  Te  0.875370  0.454318  0.500000
Mo3109  Mo  0.879158  0.447739  0.482988
Te6218  Te  0.875370  0.454318  0.465975
Te6219  Te  0.864006  0.460897  0.500000
Mo3110  Mo  0.867794  0.467476  0.482988
Te6220  Te  0.864006  0.460897  0.465975
Te6221  Te  0.875370  0.467476  0.500000
Mo3111  Mo  0.879158  0.460897  0.482988
Te6222  Te  0.875370  0.467476  0.465975
Te6223  Te  0.886733  0.421423  0.500000
Mo3112  Mo  0.890521  0.428002  0.482988
Te6224  Te  0.886733  0.421423  0.465975
Te6225  Te  0.898097  0.428002  0.500000
Mo3113  Mo  0.901885  0.421423  0.482988
Te6226  Te  0.898097  0.428002  0.465975
Te6227  Te  0.886733  0.434581  0.500000
Mo3114  Mo  0.890521  0.441160  0.482988
Te6228  Te  0.886733  0.434581  0.465975
Te6229  Te  0.898097  0.441160  0.500000
Mo3115  Mo  0.901885  0.434581  0.482988
Te6230  Te  0.898097  0.441160  0.465975
Te6231  Te  0.886733  0.447739  0.500000
Mo3116  Mo  0.890521  0.454318  0.482988
Te6232  Te  0.886733  0.447739  0.465975
Te6233  Te  0.898097  0.454318  0.500000
Mo3117  Mo  0.901885  0.447739  0.482988
Te6234  Te  0.898097  0.454318  0.465975
Te6235  Te  0.886733  0.460897  0.500000
Mo3118  Mo  0.890521  0.467476  0.482988
Te6236  Te  0.886733  0.460897  0.465975
Te6237  Te  0.898097  0.467476  0.500000
Mo3119  Mo  0.901885  0.460897  0.482988
Te6238  Te  0.898097  0.467476  0.465975
Te6239  Te  0.909461  0.421423  0.500000
Mo3120  Mo  0.913248  0.428002  0.482988
Te6240  Te  0.909461  0.421423  0.465975
Te6241  Te  0.920824  0.428002  0.500000
Mo3121  Mo  0.924612  0.421423  0.482988
Te6242  Te  0.920824  0.428002  0.465975
Te6243  Te  0.909461  0.434581  0.500000
Mo3122  Mo  0.913248  0.441160  0.482988
Te6244  Te  0.909461  0.434581  0.465975
Te6245  Te  0.920824  0.441160  0.500000
Mo3123  Mo  0.924612  0.434581  0.482988
Te6246  Te  0.920824  0.441160  0.465975
Te6247  Te  0.909461  0.447739  0.500000
Mo3124  Mo  0.913248  0.454318  0.482988
Te6248  Te  0.909461  0.447739  0.465975
Te6249  Te  0.920824  0.454318  0.500000
Mo3125  Mo  0.924612  0.447739  0.482988
Te6250  Te  0.920824  0.454318  0.465975
Te6251  Te  0.909461  0.460897  0.500000
Mo3126  Mo  0.913248  0.467476  0.482988
Te6252  Te  0.909461  0.460897  0.465975
Te6253  Te  0.920824  0.467476  0.500000
Mo3127  Mo  0.924612  0.460897  0.482988
Te6254  Te  0.920824  0.467476  0.465975
Te6255  Te  0.932188  0.421423  0.500000
Mo3128  Mo  0.935976  0.428002  0.482988
Te6256  Te  0.932188  0.421423  0.465975
Te6257  Te  0.943552  0.428002  0.500000
Mo3129  Mo  0.947339  0.421423  0.482988
Te6258  Te  0.943552  0.428002  0.465975
Te6259  Te  0.932188  0.434581  0.500000
Mo3130  Mo  0.935976  0.441160  0.482988
Te6260  Te  0.932188  0.434581  0.465975
Te6261  Te  0.943552  0.441160  0.500000
Mo3131  Mo  0.947339  0.434581  0.482988
Te6262  Te  0.943552  0.441160  0.465975
Te6263  Te  0.932188  0.447739  0.500000
Mo3132  Mo  0.935976  0.454318  0.482988
Te6264  Te  0.932188  0.447739  0.465975
Te6265  Te  0.943552  0.454318  0.500000
Mo3133  Mo  0.947339  0.447739  0.482988
Te6266  Te  0.943552  0.454318  0.465975
Te6267  Te  0.932188  0.460897  0.500000
Mo3134  Mo  0.935976  0.467476  0.482988
Te6268  Te  0.932188  0.460897  0.465975
Te6269  Te  0.943552  0.467476  0.500000
Mo3135  Mo  0.947339  0.460897  0.482988
Te6270  Te  0.943552  0.467476  0.465975
Te6271  Te  0.954915  0.421423  0.500000
Mo3136  Mo  0.958703  0.428002  0.482988
Te6272  Te  0.954915  0.421423  0.465975
Te6273  Te  0.966279  0.428002  0.500000
Mo3137  Mo  0.970067  0.421423  0.482988
Te6274  Te  0.966279  0.428002  0.465975
Te6275  Te  0.954915  0.434581  0.500000
Mo3138  Mo  0.958703  0.441160  0.482988
Te6276  Te  0.954915  0.434581  0.465975
Te6277  Te  0.966279  0.441160  0.500000
Mo3139  Mo  0.970067  0.434581  0.482988
Te6278  Te  0.966279  0.441160  0.465975
Te6279  Te  0.954915  0.447739  0.500000
Mo3140  Mo  0.958703  0.454318  0.482988
Te6280  Te  0.954915  0.447739  0.465975
Te6281  Te  0.966279  0.454318  0.500000
Mo3141  Mo  0.970067  0.447739  0.482988
Te6282  Te  0.966279  0.454318  0.465975
Te6283  Te  0.954915  0.460897  0.500000
Mo3142  Mo  0.958703  0.467476  0.482988
Te6284  Te  0.954915  0.460897  0.465975
Te6285  Te  0.966279  0.467476  0.500000
Mo3143  Mo  0.970067  0.460897  0.482988
Te6286  Te  0.966279  0.467476  0.465975
Te6287  Te  0.977642  0.421423  0.500000
Mo3144  Mo  0.981430  0.428002  0.482988
Te6288  Te  0.977642  0.421423  0.465975
Te6289  Te  0.989006  0.428002  0.500000
Mo3145  Mo  0.992794  0.421423  0.482988
Te6290  Te  0.989006  0.428002  0.465975
Te6291  Te  0.977642  0.434581  0.500000
Mo3146  Mo  0.981430  0.441160  0.482988
Te6292  Te  0.977642  0.434581  0.465975
Te6293  Te  0.989006  0.441160  0.500000
Mo3147  Mo  0.992794  0.434581  0.482988
Te6294  Te  0.989006  0.441160  0.465975
Te6295  Te  0.977642  0.447739  0.500000
Mo3148  Mo  0.981430  0.454318  0.482988
Te6296  Te  0.977642  0.447739  0.465975
Te6297  Te  0.989006  0.454318  0.500000
Mo3149  Mo  0.992794  0.447739  0.482988
Te6298  Te  0.989006  0.454318  0.465975
Te6299  Te  0.977642  0.460897  0.500000
Mo3150  Mo  0.981430  0.467476  0.482988
Te6300  Te  0.977642  0.460897  0.465975
Te6301  Te  0.989006  0.467476  0.500000
Mo3151  Mo  0.992794  0.460897  0.482988
Te6302  Te  0.989006  0.467476  0.465975
Te6303  Te  0.000370  0.474055  0.500000
Mo3152  Mo  0.004158  0.480634  0.482988
Te6304  Te  0.000370  0.474055  0.465975
Te6305  Te  0.011733  0.480634  0.500000
Mo3153  Mo  0.015521  0.474055  0.482988
Te6306  Te  0.011733  0.480634  0.465975
Te6307  Te  0.000370  0.487213  0.500000
Mo3154  Mo  0.004158  0.493792  0.482988
Te6308  Te  0.000370  0.487213  0.465975
Te6309  Te  0.011733  0.493792  0.500000
Mo3155  Mo  0.015521  0.487213  0.482988
Te6310  Te  0.011733  0.493792  0.465975
Te6311  Te  0.000370  0.500371  0.500000
Mo3156  Mo  0.004158  0.506950  0.482988
Te6312  Te  0.000370  0.500371  0.465975
Te6313  Te  0.011733  0.506950  0.500000
Mo3157  Mo  0.015521  0.500371  0.482988
Te6314  Te  0.011733  0.506950  0.465975
Te6315  Te  0.000370  0.513529  0.500000
Mo3158  Mo  0.004158  0.520107  0.482988
Te6316  Te  0.000370  0.513529  0.465975
Te6317  Te  0.011733  0.520107  0.500000
Mo3159  Mo  0.015521  0.513529  0.482988
Te6318  Te  0.011733  0.520107  0.465975
Te6319  Te  0.023097  0.474055  0.500000
Mo3160  Mo  0.026885  0.480634  0.482988
Te6320  Te  0.023097  0.474055  0.465975
Te6321  Te  0.034461  0.480634  0.500000
Mo3161  Mo  0.038249  0.474055  0.482988
Te6322  Te  0.034461  0.480634  0.465975
Te6323  Te  0.023097  0.487213  0.500000
Mo3162  Mo  0.026885  0.493792  0.482988
Te6324  Te  0.023097  0.487213  0.465975
Te6325  Te  0.034461  0.493792  0.500000
Mo3163  Mo  0.038249  0.487213  0.482988
Te6326  Te  0.034461  0.493792  0.465975
Te6327  Te  0.023097  0.500371  0.500000
Mo3164  Mo  0.026885  0.506950  0.482988
Te6328  Te  0.023097  0.500371  0.465975
Te6329  Te  0.034461  0.506950  0.500000
Mo3165  Mo  0.038249  0.500371  0.482988
Te6330  Te  0.034461  0.506950  0.465975
Te6331  Te  0.023097  0.513529  0.500000
Mo3166  Mo  0.026885  0.520107  0.482988
Te6332  Te  0.023097  0.513529  0.465975
Te6333  Te  0.034461  0.520107  0.500000
Mo3167  Mo  0.038249  0.513529  0.482988
Te6334  Te  0.034461  0.520107  0.465975
Te6335  Te  0.045824  0.474055  0.500000
Mo3168  Mo  0.049612  0.480634  0.482988
Te6336  Te  0.045824  0.474055  0.465975
Te6337  Te  0.057188  0.480634  0.500000
Mo3169  Mo  0.060976  0.474055  0.482988
Te6338  Te  0.057188  0.480634  0.465975
Te6339  Te  0.045824  0.487213  0.500000
Mo3170  Mo  0.049612  0.493792  0.482988
Te6340  Te  0.045824  0.487213  0.465975
Te6341  Te  0.057188  0.493792  0.500000
Mo3171  Mo  0.060976  0.487213  0.482988
Te6342  Te  0.057188  0.493792  0.465975
Te6343  Te  0.045824  0.500371  0.500000
Mo3172  Mo  0.049612  0.506950  0.482988
Te6344  Te  0.045824  0.500371  0.465975
Te6345  Te  0.057188  0.506950  0.500000
Mo3173  Mo  0.060976  0.500371  0.482988
Te6346  Te  0.057188  0.506950  0.465975
Te6347  Te  0.045824  0.513529  0.500000
Mo3174  Mo  0.049612  0.520107  0.482988
Te6348  Te  0.045824  0.513529  0.465975
Te6349  Te  0.057188  0.520107  0.500000
Mo3175  Mo  0.060976  0.513529  0.482988
Te6350  Te  0.057188  0.520107  0.465975
Te6351  Te  0.068552  0.474055  0.500000
Mo3176  Mo  0.072339  0.480634  0.482988
Te6352  Te  0.068552  0.474055  0.465975
Te6353  Te  0.079915  0.480634  0.500000
Mo3177  Mo  0.083703  0.474055  0.482988
Te6354  Te  0.079915  0.480634  0.465975
Te6355  Te  0.068552  0.487213  0.500000
Mo3178  Mo  0.072339  0.493792  0.482988
Te6356  Te  0.068552  0.487213  0.465975
Te6357  Te  0.079915  0.493792  0.500000
Mo3179  Mo  0.083703  0.487213  0.482988
Te6358  Te  0.079915  0.493792  0.465975
Te6359  Te  0.068552  0.500371  0.500000
Mo3180  Mo  0.072339  0.506950  0.482988
Te6360  Te  0.068552  0.500371  0.465975
Te6361  Te  0.079915  0.506950  0.500000
Mo3181  Mo  0.083703  0.500371  0.482988
Te6362  Te  0.079915  0.506950  0.465975
Te6363  Te  0.068552  0.513529  0.500000
Mo3182  Mo  0.072339  0.520107  0.482988
Te6364  Te  0.068552  0.513529  0.465975
Te6365  Te  0.079915  0.520107  0.500000
Mo3183  Mo  0.083703  0.513529  0.482988
Te6366  Te  0.079915  0.520107  0.465975
Te6367  Te  0.091279  0.474055  0.500000
Mo3184  Mo  0.095067  0.480634  0.482988
Te6368  Te  0.091279  0.474055  0.465975
Te6369  Te  0.102642  0.480634  0.500000
Mo3185  Mo  0.106430  0.474055  0.482988
Te6370  Te  0.102642  0.480634  0.465975
Te6371  Te  0.091279  0.487213  0.500000
Mo3186  Mo  0.095067  0.493792  0.482988
Te6372  Te  0.091279  0.487213  0.465975
Te6373  Te  0.102642  0.493792  0.500000
Mo3187  Mo  0.106430  0.487213  0.482988
Te6374  Te  0.102642  0.493792  0.465975
Te6375  Te  0.091279  0.500371  0.500000
Mo3188  Mo  0.095067  0.506950  0.482988
Te6376  Te  0.091279  0.500371  0.465975
Te6377  Te  0.102642  0.506950  0.500000
Mo3189  Mo  0.106430  0.500371  0.482988
Te6378  Te  0.102642  0.506950  0.465975
Te6379  Te  0.091279  0.513529  0.500000
Mo3190  Mo  0.095067  0.520107  0.482988
Te6380  Te  0.091279  0.513529  0.465975
Te6381  Te  0.102642  0.520107  0.500000
Mo3191  Mo  0.106430  0.513529  0.482988
Te6382  Te  0.102642  0.520107  0.465975
Te6383  Te  0.114006  0.474055  0.500000
Mo3192  Mo  0.117794  0.480634  0.482988
Te6384  Te  0.114006  0.474055  0.465975
Te6385  Te  0.125370  0.480634  0.500000
Mo3193  Mo  0.129158  0.474055  0.482988
Te6386  Te  0.125370  0.480634  0.465975
Te6387  Te  0.114006  0.487213  0.500000
Mo3194  Mo  0.117794  0.493792  0.482988
Te6388  Te  0.114006  0.487213  0.465975
Te6389  Te  0.125370  0.493792  0.500000
Mo3195  Mo  0.129158  0.487213  0.482988
Te6390  Te  0.125370  0.493792  0.465975
Te6391  Te  0.114006  0.500371  0.500000
Mo3196  Mo  0.117794  0.506950  0.482988
Te6392  Te  0.114006  0.500371  0.465975
Te6393  Te  0.125370  0.506950  0.500000
Mo3197  Mo  0.129158  0.500371  0.482988
Te6394  Te  0.125370  0.506950  0.465975
Te6395  Te  0.114006  0.513529  0.500000
Mo3198  Mo  0.117794  0.520107  0.482988
Te6396  Te  0.114006  0.513529  0.465975
Te6397  Te  0.125370  0.520107  0.500000
Mo3199  Mo  0.129158  0.513529  0.482988
Te6398  Te  0.125370  0.520107  0.465975
Te6399  Te  0.136733  0.474055  0.500000
Mo3200  Mo  0.140521  0.480634  0.482988
Te6400  Te  0.136733  0.474055  0.465975
Te6401  Te  0.148097  0.480634  0.500000
Mo3201  Mo  0.151885  0.474055  0.482988
Te6402  Te  0.148097  0.480634  0.465975
Te6403  Te  0.136733  0.487213  0.500000
Mo3202  Mo  0.140521  0.493792  0.482988
Te6404  Te  0.136733  0.487213  0.465975
Te6405  Te  0.148097  0.493792  0.500000
Mo3203  Mo  0.151885  0.487213  0.482988
Te6406  Te  0.148097  0.493792  0.465975
Te6407  Te  0.136733  0.500371  0.500000
Mo3204  Mo  0.140521  0.506950  0.482988
Te6408  Te  0.136733  0.500371  0.465975
Te6409  Te  0.148097  0.506950  0.500000
Mo3205  Mo  0.151885  0.500371  0.482988
Te6410  Te  0.148097  0.506950  0.465975
Te6411  Te  0.136733  0.513529  0.500000
Mo3206  Mo  0.140521  0.520107  0.482988
Te6412  Te  0.136733  0.513529  0.465975
Te6413  Te  0.148097  0.520107  0.500000
Mo3207  Mo  0.151885  0.513529  0.482988
Te6414  Te  0.148097  0.520107  0.465975
Te6415  Te  0.159461  0.474055  0.500000
Mo3208  Mo  0.163248  0.480634  0.482988
Te6416  Te  0.159461  0.474055  0.465975
Te6417  Te  0.170824  0.480634  0.500000
Mo3209  Mo  0.174612  0.474055  0.482988
Te6418  Te  0.170824  0.480634  0.465975
Te6419  Te  0.159461  0.487213  0.500000
Mo3210  Mo  0.163248  0.493792  0.482988
Te6420  Te  0.159461  0.487213  0.465975
Te6421  Te  0.170824  0.493792  0.500000
Mo3211  Mo  0.174612  0.487213  0.482988
Te6422  Te  0.170824  0.493792  0.465975
Te6423  Te  0.159461  0.500371  0.500000
Mo3212  Mo  0.163248  0.506950  0.482988
Te6424  Te  0.159461  0.500371  0.465975
Te6425  Te  0.170824  0.506950  0.500000
Mo3213  Mo  0.174612  0.500371  0.482988
Te6426  Te  0.170824  0.506950  0.465975
Te6427  Te  0.159461  0.513529  0.500000
Mo3214  Mo  0.163248  0.520107  0.482988
Te6428  Te  0.159461  0.513529  0.465975
Te6429  Te  0.170824  0.520107  0.500000
Mo3215  Mo  0.174612  0.513529  0.482988
Te6430  Te  0.170824  0.520107  0.465975
Te6431  Te  0.182188  0.474055  0.500000
Mo3216  Mo  0.185976  0.480634  0.482988
Te6432  Te  0.182188  0.474055  0.465975
Te6433  Te  0.193551  0.480634  0.500000
Mo3217  Mo  0.197339  0.474055  0.482988
Te6434  Te  0.193551  0.480634  0.465975
Te6435  Te  0.182188  0.487213  0.500000
Mo3218  Mo  0.185976  0.493792  0.482988
Te6436  Te  0.182188  0.487213  0.465975
Te6437  Te  0.193551  0.493792  0.500000
Mo3219  Mo  0.197339  0.487213  0.482988
Te6438  Te  0.193551  0.493792  0.465975
Te6439  Te  0.182188  0.500371  0.500000
Mo3220  Mo  0.185976  0.506950  0.482988
Te6440  Te  0.182188  0.500371  0.465975
Te6441  Te  0.193551  0.506950  0.500000
Mo3221  Mo  0.197339  0.500371  0.482988
Te6442  Te  0.193551  0.506950  0.465975
Te6443  Te  0.182188  0.513529  0.500000
Mo3222  Mo  0.185976  0.520107  0.482988
Te6444  Te  0.182188  0.513529  0.465975
Te6445  Te  0.193551  0.520107  0.500000
Mo3223  Mo  0.197339  0.513529  0.482988
Te6446  Te  0.193551  0.520107  0.465975
Te6447  Te  0.204915  0.474055  0.500000
Mo3224  Mo  0.208703  0.480634  0.482988
Te6448  Te  0.204915  0.474055  0.465975
Te6449  Te  0.216279  0.480634  0.500000
Mo3225  Mo  0.220067  0.474055  0.482988
Te6450  Te  0.216279  0.480634  0.465975
Te6451  Te  0.204915  0.487213  0.500000
Mo3226  Mo  0.208703  0.493792  0.482988
Te6452  Te  0.204915  0.487213  0.465975
Te6453  Te  0.216279  0.493792  0.500000
Mo3227  Mo  0.220067  0.487213  0.482988
Te6454  Te  0.216279  0.493792  0.465975
Te6455  Te  0.204915  0.500371  0.500000
Mo3228  Mo  0.208703  0.506950  0.482988
Te6456  Te  0.204915  0.500371  0.465975
Te6457  Te  0.216279  0.506950  0.500000
Mo3229  Mo  0.220067  0.500371  0.482988
Te6458  Te  0.216279  0.506950  0.465975
Te6459  Te  0.204915  0.513529  0.500000
Mo3230  Mo  0.208703  0.520107  0.482988
Te6460  Te  0.204915  0.513529  0.465975
Te6461  Te  0.216279  0.520107  0.500000
Mo3231  Mo  0.220067  0.513529  0.482988
Te6462  Te  0.216279  0.520107  0.465975
Te6463  Te  0.227642  0.474055  0.500000
Mo3232  Mo  0.231430  0.480634  0.482988
Te6464  Te  0.227642  0.474055  0.465975
Te6465  Te  0.239006  0.480634  0.500000
Mo3233  Mo  0.242794  0.474055  0.482988
Te6466  Te  0.239006  0.480634  0.465975
Te6467  Te  0.227642  0.487213  0.500000
Mo3234  Mo  0.231430  0.493792  0.482988
Te6468  Te  0.227642  0.487213  0.465975
Te6469  Te  0.239006  0.493792  0.500000
Mo3235  Mo  0.242794  0.487213  0.482988
Te6470  Te  0.239006  0.493792  0.465975
Te6471  Te  0.227642  0.500371  0.500000
Mo3236  Mo  0.231430  0.506950  0.482988
Te6472  Te  0.227642  0.500371  0.465975
Te6473  Te  0.239006  0.506950  0.500000
Mo3237  Mo  0.242794  0.500371  0.482988
Te6474  Te  0.239006  0.506950  0.465975
Te6475  Te  0.227642  0.513529  0.500000
Mo3238  Mo  0.231430  0.520107  0.482988
Te6476  Te  0.227642  0.513529  0.465975
Te6477  Te  0.239006  0.520107  0.500000
Mo3239  Mo  0.242794  0.513529  0.482988
Te6478  Te  0.239006  0.520107  0.465975
Te6479  Te  0.250370  0.474055  0.500000
Mo3240  Mo  0.254158  0.480634  0.482988
Te6480  Te  0.250370  0.474055  0.465975
Te6481  Te  0.261733  0.480634  0.500000
Mo3241  Mo  0.265521  0.474055  0.482988
Te6482  Te  0.261733  0.480634  0.465975
Te6483  Te  0.250370  0.487213  0.500000
Mo3242  Mo  0.254158  0.493792  0.482988
Te6484  Te  0.250370  0.487213  0.465975
Te6485  Te  0.261733  0.493792  0.500000
Mo3243  Mo  0.265521  0.487213  0.482988
Te6486  Te  0.261733  0.493792  0.465975
Te6487  Te  0.250370  0.500371  0.500000
Mo3244  Mo  0.254158  0.506950  0.482988
Te6488  Te  0.250370  0.500371  0.465975
Te6489  Te  0.261733  0.506950  0.500000
Mo3245  Mo  0.265521  0.500371  0.482988
Te6490  Te  0.261733  0.506950  0.465975
Te6491  Te  0.250370  0.513529  0.500000
Mo3246  Mo  0.254158  0.520107  0.482988
Te6492  Te  0.250370  0.513529  0.465975
Te6493  Te  0.261733  0.520107  0.500000
Mo3247  Mo  0.265521  0.513529  0.482988
Te6494  Te  0.261733  0.520107  0.465975
Te6495  Te  0.273097  0.474055  0.500000
Mo3248  Mo  0.276885  0.480634  0.482988
Te6496  Te  0.273097  0.474055  0.465975
Te6497  Te  0.284461  0.480634  0.500000
Mo3249  Mo  0.288248  0.474055  0.482988
Te6498  Te  0.284461  0.480634  0.465975
Te6499  Te  0.273097  0.487213  0.500000
Mo3250  Mo  0.276885  0.493792  0.482988
Te6500  Te  0.273097  0.487213  0.465975
Te6501  Te  0.284461  0.493792  0.500000
Mo3251  Mo  0.288248  0.487213  0.482988
Te6502  Te  0.284461  0.493792  0.465975
Te6503  Te  0.273097  0.500371  0.500000
Mo3252  Mo  0.276885  0.506950  0.482988
Te6504  Te  0.273097  0.500371  0.465975
Te6505  Te  0.284461  0.506950  0.500000
Mo3253  Mo  0.288248  0.500371  0.482988
Te6506  Te  0.284461  0.506950  0.465975
Te6507  Te  0.273097  0.513529  0.500000
Mo3254  Mo  0.276885  0.520107  0.482988
Te6508  Te  0.273097  0.513529  0.465975
Te6509  Te  0.284461  0.520107  0.500000
Mo3255  Mo  0.288248  0.513529  0.482988
Te6510  Te  0.284461  0.520107  0.465975
Te6511  Te  0.295824  0.474055  0.500000
Mo3256  Mo  0.299612  0.480634  0.482988
Te6512  Te  0.295824  0.474055  0.465975
Te6513  Te  0.307188  0.480634  0.500000
Mo3257  Mo  0.310976  0.474055  0.482988
Te6514  Te  0.307188  0.480634  0.465975
Te6515  Te  0.295824  0.487213  0.500000
Mo3258  Mo  0.299612  0.493792  0.482988
Te6516  Te  0.295824  0.487213  0.465975
Te6517  Te  0.307188  0.493792  0.500000
Mo3259  Mo  0.310976  0.487213  0.482988
Te6518  Te  0.307188  0.493792  0.465975
Te6519  Te  0.295824  0.500371  0.500000
Mo3260  Mo  0.299612  0.506950  0.482988
Te6520  Te  0.295824  0.500371  0.465975
Te6521  Te  0.307188  0.506950  0.500000
Mo3261  Mo  0.310976  0.500371  0.482988
Te6522  Te  0.307188  0.506950  0.465975
Te6523  Te  0.295824  0.513529  0.500000
Mo3262  Mo  0.299612  0.520107  0.482988
Te6524  Te  0.295824  0.513529  0.465975
Te6525  Te  0.307188  0.520107  0.500000
Mo3263  Mo  0.310976  0.513529  0.482988
Te6526  Te  0.307188  0.520107  0.465975
Te6527  Te  0.318551  0.474055  0.500000
Mo3264  Mo  0.322339  0.480634  0.482988
Te6528  Te  0.318551  0.474055  0.465975
Te6529  Te  0.329915  0.480634  0.500000
Mo3265  Mo  0.333703  0.474055  0.482988
Te6530  Te  0.329915  0.480634  0.465975
Te6531  Te  0.318551  0.487213  0.500000
Mo3266  Mo  0.322339  0.493792  0.482988
Te6532  Te  0.318551  0.487213  0.465975
Te6533  Te  0.329915  0.493792  0.500000
Mo3267  Mo  0.333703  0.487213  0.482988
Te6534  Te  0.329915  0.493792  0.465975
Te6535  Te  0.318551  0.500371  0.500000
Mo3268  Mo  0.322339  0.506950  0.482988
Te6536  Te  0.318551  0.500371  0.465975
Te6537  Te  0.329915  0.506950  0.500000
Mo3269  Mo  0.333703  0.500371  0.482988
Te6538  Te  0.329915  0.506950  0.465975
Te6539  Te  0.318551  0.513529  0.500000
Mo3270  Mo  0.322339  0.520107  0.482988
Te6540  Te  0.318551  0.513529  0.465975
Te6541  Te  0.329915  0.520107  0.500000
Mo3271  Mo  0.333703  0.513529  0.482988
Te6542  Te  0.329915  0.520107  0.465975
Te6543  Te  0.341279  0.474055  0.500000
Mo3272  Mo  0.345067  0.480634  0.482988
Te6544  Te  0.341279  0.474055  0.465975
Te6545  Te  0.352642  0.480634  0.500000
Mo3273  Mo  0.356430  0.474055  0.482988
Te6546  Te  0.352642  0.480634  0.465975
Te6547  Te  0.341279  0.487213  0.500000
Mo3274  Mo  0.345067  0.493792  0.482988
Te6548  Te  0.341279  0.487213  0.465975
Te6549  Te  0.352642  0.493792  0.500000
Mo3275  Mo  0.356430  0.487213  0.482988
Te6550  Te  0.352642  0.493792  0.465975
Te6551  Te  0.341279  0.500371  0.500000
Mo3276  Mo  0.345067  0.506950  0.482988
Te6552  Te  0.341279  0.500371  0.465975
Te6553  Te  0.352642  0.506950  0.500000
Mo3277  Mo  0.356430  0.500371  0.482988
Te6554  Te  0.352642  0.506950  0.465975
Te6555  Te  0.341279  0.513529  0.500000
Mo3278  Mo  0.345067  0.520107  0.482988
Te6556  Te  0.341279  0.513529  0.465975
Te6557  Te  0.352642  0.520107  0.500000
Mo3279  Mo  0.356430  0.513529  0.482988
Te6558  Te  0.352642  0.520107  0.465975
Te6559  Te  0.364006  0.474055  0.500000
Mo3280  Mo  0.367794  0.480634  0.482988
Te6560  Te  0.364006  0.474055  0.465975
Te6561  Te  0.375370  0.480634  0.500000
Mo3281  Mo  0.379158  0.474055  0.482988
Te6562  Te  0.375370  0.480634  0.465975
Te6563  Te  0.364006  0.487213  0.500000
Mo3282  Mo  0.367794  0.493792  0.482988
Te6564  Te  0.364006  0.487213  0.465975
Te6565  Te  0.375370  0.493792  0.500000
Mo3283  Mo  0.379158  0.487213  0.482988
Te6566  Te  0.375370  0.493792  0.465975
Te6567  Te  0.364006  0.500371  0.500000
Mo3284  Mo  0.367794  0.506950  0.482988
Te6568  Te  0.364006  0.500371  0.465975
Te6569  Te  0.375370  0.506950  0.500000
Mo3285  Mo  0.379158  0.500371  0.482988
Te6570  Te  0.375370  0.506950  0.465975
Te6571  Te  0.364006  0.513529  0.500000
Mo3286  Mo  0.367794  0.520107  0.482988
Te6572  Te  0.364006  0.513529  0.465975
Te6573  Te  0.375370  0.520107  0.500000
Mo3287  Mo  0.379158  0.513529  0.482988
Te6574  Te  0.375370  0.520107  0.465975
Te6575  Te  0.386733  0.474055  0.500000
Mo3288  Mo  0.390521  0.480634  0.482988
Te6576  Te  0.386733  0.474055  0.465975
Te6577  Te  0.398097  0.480634  0.500000
Mo3289  Mo  0.401885  0.474055  0.482988
Te6578  Te  0.398097  0.480634  0.465975
Te6579  Te  0.386733  0.487213  0.500000
Mo3290  Mo  0.390521  0.493792  0.482988
Te6580  Te  0.386733  0.487213  0.465975
Te6581  Te  0.398097  0.493792  0.500000
Mo3291  Mo  0.401885  0.487213  0.482988
Te6582  Te  0.398097  0.493792  0.465975
Te6583  Te  0.386733  0.500371  0.500000
Mo3292  Mo  0.390521  0.506950  0.482988
Te6584  Te  0.386733  0.500371  0.465975
Te6585  Te  0.398097  0.506950  0.500000
Mo3293  Mo  0.401885  0.500371  0.482988
Te6586  Te  0.398097  0.506950  0.465975
Te6587  Te  0.386733  0.513529  0.500000
Mo3294  Mo  0.390521  0.520107  0.482988
Te6588  Te  0.386733  0.513529  0.465975
Te6589  Te  0.398097  0.520107  0.500000
Mo3295  Mo  0.401885  0.513529  0.482988
Te6590  Te  0.398097  0.520107  0.465975
Te6591  Te  0.409461  0.474055  0.500000
Mo3296  Mo  0.413248  0.480634  0.482988
Te6592  Te  0.409461  0.474055  0.465975
Te6593  Te  0.420824  0.480634  0.500000
Mo3297  Mo  0.424612  0.474055  0.482988
Te6594  Te  0.420824  0.480634  0.465975
Te6595  Te  0.409461  0.487213  0.500000
Mo3298  Mo  0.413248  0.493792  0.482988
Te6596  Te  0.409461  0.487213  0.465975
Te6597  Te  0.420824  0.493792  0.500000
Mo3299  Mo  0.424612  0.487213  0.482988
Te6598  Te  0.420824  0.493792  0.465975
Te6599  Te  0.409461  0.500371  0.500000
Mo3300  Mo  0.413248  0.506950  0.482988
Te6600  Te  0.409461  0.500371  0.465975
Te6601  Te  0.420824  0.506950  0.500000
Mo3301  Mo  0.424612  0.500371  0.482988
Te6602  Te  0.420824  0.506950  0.465975
Te6603  Te  0.409461  0.513529  0.500000
Mo3302  Mo  0.413248  0.520107  0.482988
Te6604  Te  0.409461  0.513529  0.465975
Te6605  Te  0.420824  0.520107  0.500000
Mo3303  Mo  0.424612  0.513529  0.482988
Te6606  Te  0.420824  0.520107  0.465975
Te6607  Te  0.432188  0.474055  0.500000
Mo3304  Mo  0.435976  0.480634  0.482988
Te6608  Te  0.432188  0.474055  0.465975
Te6609  Te  0.443552  0.480634  0.500000
Mo3305  Mo  0.447339  0.474055  0.482988
Te6610  Te  0.443552  0.480634  0.465975
Te6611  Te  0.432188  0.487213  0.500000
Mo3306  Mo  0.435976  0.493792  0.482988
Te6612  Te  0.432188  0.487213  0.465975
Te6613  Te  0.443552  0.493792  0.500000
Mo3307  Mo  0.447339  0.487213  0.482988
Te6614  Te  0.443552  0.493792  0.465975
Te6615  Te  0.432188  0.500371  0.500000
Mo3308  Mo  0.435976  0.506950  0.482988
Te6616  Te  0.432188  0.500371  0.465975
Te6617  Te  0.443552  0.506950  0.500000
Mo3309  Mo  0.447339  0.500371  0.482988
Te6618  Te  0.443552  0.506950  0.465975
Te6619  Te  0.432188  0.513529  0.500000
Mo3310  Mo  0.435976  0.520107  0.482988
Te6620  Te  0.432188  0.513529  0.465975
Te6621  Te  0.443552  0.520107  0.500000
Mo3311  Mo  0.447339  0.513529  0.482988
Te6622  Te  0.443552  0.520107  0.465975
Te6623  Te  0.454915  0.487213  0.500000
Mo3312  Mo  0.458703  0.493792  0.482988
Te6624  Te  0.454915  0.487213  0.465975
Te6625  Te  0.454915  0.500371  0.500000
Mo3313  Mo  0.458703  0.506950  0.482988
Te6626  Te  0.454915  0.500371  0.465975
Te6627  Te  0.466279  0.506950  0.500000
Te6628  Te  0.454915  0.513529  0.500000
Mo3314  Mo  0.458703  0.520107  0.482988
Te6629  Te  0.454915  0.513529  0.465975
Te6630  Te  0.466279  0.520107  0.500000
Mo3315  Mo  0.470067  0.513529  0.482988
Te6631  Te  0.466279  0.520107  0.465975
Mo3316  Mo  0.481430  0.520107  0.482988
Te6632  Te  0.534461  0.506950  0.500000
Mo3317  Mo  0.538249  0.500371  0.482988
Mo3318  Mo  0.526885  0.520107  0.482988
Te6633  Te  0.534461  0.520107  0.500000
Mo3319  Mo  0.538249  0.513529  0.482988
Te6634  Te  0.534461  0.520107  0.465975
Mo3320  Mo  0.549612  0.480634  0.482988
Te6635  Te  0.557188  0.480634  0.500000
Mo3321  Mo  0.560976  0.474055  0.482988
Te6636  Te  0.557188  0.480634  0.465975
Te6637  Te  0.545824  0.487213  0.500000
Mo3322  Mo  0.549612  0.493792  0.482988
Te6638  Te  0.545824  0.487213  0.465975
Te6639  Te  0.557188  0.493792  0.500000
Mo3323  Mo  0.560976  0.487213  0.482988
Te6640  Te  0.557188  0.493792  0.465975
Te6641  Te  0.545824  0.500371  0.500000
Mo3324  Mo  0.549612  0.506950  0.482988
Te6642  Te  0.545824  0.500371  0.465975
Te6643  Te  0.557188  0.506950  0.500000
Mo3325  Mo  0.560976  0.500371  0.482988
Te6644  Te  0.557188  0.506950  0.465975
Te6645  Te  0.545824  0.513529  0.500000
Mo3326  Mo  0.549612  0.520107  0.482988
Te6646  Te  0.545824  0.513529  0.465975
Te6647  Te  0.557188  0.520107  0.500000
Mo3327  Mo  0.560976  0.513529  0.482988
Te6648  Te  0.557188  0.520107  0.465975
Te6649  Te  0.568552  0.474055  0.500000
Mo3328  Mo  0.572339  0.480634  0.482988
Te6650  Te  0.568552  0.474055  0.465975
Te6651  Te  0.579915  0.480634  0.500000
Mo3329  Mo  0.583703  0.474055  0.482988
Te6652  Te  0.579915  0.480634  0.465975
Te6653  Te  0.568552  0.487213  0.500000
Mo3330  Mo  0.572339  0.493792  0.482988
Te6654  Te  0.568552  0.487213  0.465975
Te6655  Te  0.579915  0.493792  0.500000
Mo3331  Mo  0.583703  0.487213  0.482988
Te6656  Te  0.579915  0.493792  0.465975
Te6657  Te  0.568552  0.500371  0.500000
Mo3332  Mo  0.572339  0.506950  0.482988
Te6658  Te  0.568552  0.500371  0.465975
Te6659  Te  0.579915  0.506950  0.500000
Mo3333  Mo  0.583703  0.500371  0.482988
Te6660  Te  0.579915  0.506950  0.465975
Te6661  Te  0.568552  0.513529  0.500000
Mo3334  Mo  0.572339  0.520107  0.482988
Te6662  Te  0.568552  0.513529  0.465975
Te6663  Te  0.579915  0.520107  0.500000
Mo3335  Mo  0.583703  0.513529  0.482988
Te6664  Te  0.579915  0.520107  0.465975
Te6665  Te  0.591279  0.474055  0.500000
Mo3336  Mo  0.595067  0.480634  0.482988
Te6666  Te  0.591279  0.474055  0.465975
Te6667  Te  0.602642  0.480634  0.500000
Mo3337  Mo  0.606430  0.474055  0.482988
Te6668  Te  0.602642  0.480634  0.465975
Te6669  Te  0.591279  0.487213  0.500000
Mo3338  Mo  0.595067  0.493792  0.482988
Te6670  Te  0.591279  0.487213  0.465975
Te6671  Te  0.602642  0.493792  0.500000
Mo3339  Mo  0.606430  0.487213  0.482988
Te6672  Te  0.602642  0.493792  0.465975
Te6673  Te  0.591279  0.500371  0.500000
Mo3340  Mo  0.595067  0.506950  0.482988
Te6674  Te  0.591279  0.500371  0.465975
Te6675  Te  0.602642  0.506950  0.500000
Mo3341  Mo  0.606430  0.500371  0.482988
Te6676  Te  0.602642  0.506950  0.465975
Te6677  Te  0.591279  0.513529  0.500000
Mo3342  Mo  0.595067  0.520107  0.482988
Te6678  Te  0.591279  0.513529  0.465975
Te6679  Te  0.602642  0.520107  0.500000
Mo3343  Mo  0.606430  0.513529  0.482988
Te6680  Te  0.602642  0.520107  0.465975
Te6681  Te  0.614006  0.474055  0.500000
Mo3344  Mo  0.617794  0.480634  0.482988
Te6682  Te  0.614006  0.474055  0.465975
Te6683  Te  0.625370  0.480634  0.500000
Mo3345  Mo  0.629158  0.474055  0.482988
Te6684  Te  0.625370  0.480634  0.465975
Te6685  Te  0.614006  0.487213  0.500000
Mo3346  Mo  0.617794  0.493792  0.482988
Te6686  Te  0.614006  0.487213  0.465975
Te6687  Te  0.625370  0.493792  0.500000
Mo3347  Mo  0.629158  0.487213  0.482988
Te6688  Te  0.625370  0.493792  0.465975
Te6689  Te  0.614006  0.500371  0.500000
Mo3348  Mo  0.617794  0.506950  0.482988
Te6690  Te  0.614006  0.500371  0.465975
Te6691  Te  0.625370  0.506950  0.500000
Mo3349  Mo  0.629158  0.500371  0.482988
Te6692  Te  0.625370  0.506950  0.465975
Te6693  Te  0.614006  0.513529  0.500000
Mo3350  Mo  0.617794  0.520107  0.482988
Te6694  Te  0.614006  0.513529  0.465975
Te6695  Te  0.625370  0.520107  0.500000
Mo3351  Mo  0.629158  0.513529  0.482988
Te6696  Te  0.625370  0.520107  0.465975
Te6697  Te  0.636733  0.474055  0.500000
Mo3352  Mo  0.640521  0.480634  0.482988
Te6698  Te  0.636733  0.474055  0.465975
Te6699  Te  0.648097  0.480634  0.500000
Mo3353  Mo  0.651885  0.474055  0.482988
Te6700  Te  0.648097  0.480634  0.465975
Te6701  Te  0.636733  0.487213  0.500000
Mo3354  Mo  0.640521  0.493792  0.482988
Te6702  Te  0.636733  0.487213  0.465975
Te6703  Te  0.648097  0.493792  0.500000
Mo3355  Mo  0.651885  0.487213  0.482988
Te6704  Te  0.648097  0.493792  0.465975
Te6705  Te  0.636733  0.500371  0.500000
Mo3356  Mo  0.640521  0.506950  0.482988
Te6706  Te  0.636733  0.500371  0.465975
Te6707  Te  0.648097  0.506950  0.500000
Mo3357  Mo  0.651885  0.500371  0.482988
Te6708  Te  0.648097  0.506950  0.465975
Te6709  Te  0.636733  0.513529  0.500000
Mo3358  Mo  0.640521  0.520107  0.482988
Te6710  Te  0.636733  0.513529  0.465975
Te6711  Te  0.648097  0.520107  0.500000
Mo3359  Mo  0.651885  0.513529  0.482988
Te6712  Te  0.648097  0.520107  0.465975
Te6713  Te  0.659461  0.474055  0.500000
Mo3360  Mo  0.663248  0.480634  0.482988
Te6714  Te  0.659461  0.474055  0.465975
Te6715  Te  0.670824  0.480634  0.500000
Mo3361  Mo  0.674612  0.474055  0.482988
Te6716  Te  0.670824  0.480634  0.465975
Te6717  Te  0.659461  0.487213  0.500000
Mo3362  Mo  0.663248  0.493792  0.482988
Te6718  Te  0.659461  0.487213  0.465975
Te6719  Te  0.670824  0.493792  0.500000
Mo3363  Mo  0.674612  0.487213  0.482988
Te6720  Te  0.670824  0.493792  0.465975
Te6721  Te  0.659461  0.500371  0.500000
Mo3364  Mo  0.663248  0.506950  0.482988
Te6722  Te  0.659461  0.500371  0.465975
Te6723  Te  0.670824  0.506950  0.500000
Mo3365  Mo  0.674612  0.500371  0.482988
Te6724  Te  0.670824  0.506950  0.465975
Te6725  Te  0.659461  0.513529  0.500000
Mo3366  Mo  0.663248  0.520107  0.482988
Te6726  Te  0.659461  0.513529  0.465975
Te6727  Te  0.670824  0.520107  0.500000
Mo3367  Mo  0.674612  0.513529  0.482988
Te6728  Te  0.670824  0.520107  0.465975
Te6729  Te  0.682188  0.474055  0.500000
Mo3368  Mo  0.685976  0.480634  0.482988
Te6730  Te  0.682188  0.474055  0.465975
Te6731  Te  0.693551  0.480634  0.500000
Mo3369  Mo  0.697339  0.474055  0.482988
Te6732  Te  0.693551  0.480634  0.465975
Te6733  Te  0.682188  0.487213  0.500000
Mo3370  Mo  0.685976  0.493792  0.482988
Te6734  Te  0.682188  0.487213  0.465975
Te6735  Te  0.693551  0.493792  0.500000
Mo3371  Mo  0.697339  0.487213  0.482988
Te6736  Te  0.693551  0.493792  0.465975
Te6737  Te  0.682188  0.500371  0.500000
Mo3372  Mo  0.685976  0.506950  0.482988
Te6738  Te  0.682188  0.500371  0.465975
Te6739  Te  0.693551  0.506950  0.500000
Mo3373  Mo  0.697339  0.500371  0.482988
Te6740  Te  0.693551  0.506950  0.465975
Te6741  Te  0.682188  0.513529  0.500000
Mo3374  Mo  0.685976  0.520107  0.482988
Te6742  Te  0.682188  0.513529  0.465975
Te6743  Te  0.693551  0.520107  0.500000
Mo3375  Mo  0.697339  0.513529  0.482988
Te6744  Te  0.693551  0.520107  0.465975
Te6745  Te  0.704915  0.474055  0.500000
Mo3376  Mo  0.708703  0.480634  0.482988
Te6746  Te  0.704915  0.474055  0.465975
Te6747  Te  0.716279  0.480634  0.500000
Mo3377  Mo  0.720067  0.474055  0.482988
Te6748  Te  0.716279  0.480634  0.465975
Te6749  Te  0.704915  0.487213  0.500000
Mo3378  Mo  0.708703  0.493792  0.482988
Te6750  Te  0.704915  0.487213  0.465975
Te6751  Te  0.716279  0.493792  0.500000
Mo3379  Mo  0.720067  0.487213  0.482988
Te6752  Te  0.716279  0.493792  0.465975
Te6753  Te  0.704915  0.500371  0.500000
Mo3380  Mo  0.708703  0.506950  0.482988
Te6754  Te  0.704915  0.500371  0.465975
Te6755  Te  0.716279  0.506950  0.500000
Mo3381  Mo  0.720067  0.500371  0.482988
Te6756  Te  0.716279  0.506950  0.465975
Te6757  Te  0.704915  0.513529  0.500000
Mo3382  Mo  0.708703  0.520107  0.482988
Te6758  Te  0.704915  0.513529  0.465975
Te6759  Te  0.716279  0.520107  0.500000
Mo3383  Mo  0.720067  0.513529  0.482988
Te6760  Te  0.716279  0.520107  0.465975
Te6761  Te  0.727642  0.474055  0.500000
Mo3384  Mo  0.731430  0.480634  0.482988
Te6762  Te  0.727642  0.474055  0.465975
Te6763  Te  0.739006  0.480634  0.500000
Mo3385  Mo  0.742794  0.474055  0.482988
Te6764  Te  0.739006  0.480634  0.465975
Te6765  Te  0.727642  0.487213  0.500000
Mo3386  Mo  0.731430  0.493792  0.482988
Te6766  Te  0.727642  0.487213  0.465975
Te6767  Te  0.739006  0.493792  0.500000
Mo3387  Mo  0.742794  0.487213  0.482988
Te6768  Te  0.739006  0.493792  0.465975
Te6769  Te  0.727642  0.500371  0.500000
Mo3388  Mo  0.731430  0.506950  0.482988
Te6770  Te  0.727642  0.500371  0.465975
Te6771  Te  0.739006  0.506950  0.500000
Mo3389  Mo  0.742794  0.500371  0.482988
Te6772  Te  0.739006  0.506950  0.465975
Te6773  Te  0.727642  0.513529  0.500000
Mo3390  Mo  0.731430  0.520107  0.482988
Te6774  Te  0.727642  0.513529  0.465975
Te6775  Te  0.739006  0.520107  0.500000
Mo3391  Mo  0.742794  0.513529  0.482988
Te6776  Te  0.739006  0.520107  0.465975
Te6777  Te  0.750370  0.474055  0.500000
Mo3392  Mo  0.754158  0.480634  0.482988
Te6778  Te  0.750370  0.474055  0.465975
Te6779  Te  0.761733  0.480634  0.500000
Mo3393  Mo  0.765521  0.474055  0.482988
Te6780  Te  0.761733  0.480634  0.465975
Te6781  Te  0.750370  0.487213  0.500000
Mo3394  Mo  0.754158  0.493792  0.482988
Te6782  Te  0.750370  0.487213  0.465975
Te6783  Te  0.761733  0.493792  0.500000
Mo3395  Mo  0.765521  0.487213  0.482988
Te6784  Te  0.761733  0.493792  0.465975
Te6785  Te  0.750370  0.500371  0.500000
Mo3396  Mo  0.754158  0.506950  0.482988
Te6786  Te  0.750370  0.500371  0.465975
Te6787  Te  0.761733  0.506950  0.500000
Mo3397  Mo  0.765521  0.500371  0.482988
Te6788  Te  0.761733  0.506950  0.465975
Te6789  Te  0.750370  0.513529  0.500000
Mo3398  Mo  0.754158  0.520107  0.482988
Te6790  Te  0.750370  0.513529  0.465975
Te6791  Te  0.761733  0.520107  0.500000
Mo3399  Mo  0.765521  0.513529  0.482988
Te6792  Te  0.761733  0.520107  0.465975
Te6793  Te  0.773097  0.474055  0.500000
Mo3400  Mo  0.776885  0.480634  0.482988
Te6794  Te  0.773097  0.474055  0.465975
Te6795  Te  0.784461  0.480634  0.500000
Mo3401  Mo  0.788248  0.474055  0.482988
Te6796  Te  0.784461  0.480634  0.465975
Te6797  Te  0.773097  0.487213  0.500000
Mo3402  Mo  0.776885  0.493792  0.482988
Te6798  Te  0.773097  0.487213  0.465975
Te6799  Te  0.784461  0.493792  0.500000
Mo3403  Mo  0.788248  0.487213  0.482988
Te6800  Te  0.784461  0.493792  0.465975
Te6801  Te  0.773097  0.500371  0.500000
Mo3404  Mo  0.776885  0.506950  0.482988
Te6802  Te  0.773097  0.500371  0.465975
Te6803  Te  0.784461  0.506950  0.500000
Mo3405  Mo  0.788248  0.500371  0.482988
Te6804  Te  0.784461  0.506950  0.465975
Te6805  Te  0.773097  0.513529  0.500000
Mo3406  Mo  0.776885  0.520107  0.482988
Te6806  Te  0.773097  0.513529  0.465975
Te6807  Te  0.784461  0.520107  0.500000
Mo3407  Mo  0.788248  0.513529  0.482988
Te6808  Te  0.784461  0.520107  0.465975
Te6809  Te  0.795824  0.474055  0.500000
Mo3408  Mo  0.799612  0.480634  0.482988
Te6810  Te  0.795824  0.474055  0.465975
Te6811  Te  0.807188  0.480634  0.500000
Mo3409  Mo  0.810976  0.474055  0.482988
Te6812  Te  0.807188  0.480634  0.465975
Te6813  Te  0.795824  0.487213  0.500000
Mo3410  Mo  0.799612  0.493792  0.482988
Te6814  Te  0.795824  0.487213  0.465975
Te6815  Te  0.807188  0.493792  0.500000
Mo3411  Mo  0.810976  0.487213  0.482988
Te6816  Te  0.807188  0.493792  0.465975
Te6817  Te  0.795824  0.500371  0.500000
Mo3412  Mo  0.799612  0.506950  0.482988
Te6818  Te  0.795824  0.500371  0.465975
Te6819  Te  0.807188  0.506950  0.500000
Mo3413  Mo  0.810976  0.500371  0.482988
Te6820  Te  0.807188  0.506950  0.465975
Te6821  Te  0.795824  0.513529  0.500000
Mo3414  Mo  0.799612  0.520107  0.482988
Te6822  Te  0.795824  0.513529  0.465975
Te6823  Te  0.807188  0.520107  0.500000
Mo3415  Mo  0.810976  0.513529  0.482988
Te6824  Te  0.807188  0.520107  0.465975
Te6825  Te  0.818551  0.474055  0.500000
Mo3416  Mo  0.822339  0.480634  0.482988
Te6826  Te  0.818551  0.474055  0.465975
Te6827  Te  0.829915  0.480634  0.500000
Mo3417  Mo  0.833703  0.474055  0.482988
Te6828  Te  0.829915  0.480634  0.465975
Te6829  Te  0.818551  0.487213  0.500000
Mo3418  Mo  0.822339  0.493792  0.482988
Te6830  Te  0.818551  0.487213  0.465975
Te6831  Te  0.829915  0.493792  0.500000
Mo3419  Mo  0.833703  0.487213  0.482988
Te6832  Te  0.829915  0.493792  0.465975
Te6833  Te  0.818551  0.500371  0.500000
Mo3420  Mo  0.822339  0.506950  0.482988
Te6834  Te  0.818551  0.500371  0.465975
Te6835  Te  0.829915  0.506950  0.500000
Mo3421  Mo  0.833703  0.500371  0.482988
Te6836  Te  0.829915  0.506950  0.465975
Te6837  Te  0.818551  0.513529  0.500000
Mo3422  Mo  0.822339  0.520107  0.482988
Te6838  Te  0.818551  0.513529  0.465975
Te6839  Te  0.829915  0.520107  0.500000
Mo3423  Mo  0.833703  0.513529  0.482988
Te6840  Te  0.829915  0.520107  0.465975
Te6841  Te  0.841279  0.474055  0.500000
Mo3424  Mo  0.845067  0.480634  0.482988
Te6842  Te  0.841279  0.474055  0.465975
Te6843  Te  0.852642  0.480634  0.500000
Mo3425  Mo  0.856430  0.474055  0.482988
Te6844  Te  0.852642  0.480634  0.465975
Te6845  Te  0.841279  0.487213  0.500000
Mo3426  Mo  0.845067  0.493792  0.482988
Te6846  Te  0.841279  0.487213  0.465975
Te6847  Te  0.852642  0.493792  0.500000
Mo3427  Mo  0.856430  0.487213  0.482988
Te6848  Te  0.852642  0.493792  0.465975
Te6849  Te  0.841279  0.500371  0.500000
Mo3428  Mo  0.845067  0.506950  0.482988
Te6850  Te  0.841279  0.500371  0.465975
Te6851  Te  0.852642  0.506950  0.500000
Mo3429  Mo  0.856430  0.500371  0.482988
Te6852  Te  0.852642  0.506950  0.465975
Te6853  Te  0.841279  0.513529  0.500000
Mo3430  Mo  0.845067  0.520107  0.482988
Te6854  Te  0.841279  0.513529  0.465975
Te6855  Te  0.852642  0.520107  0.500000
Mo3431  Mo  0.856430  0.513529  0.482988
Te6856  Te  0.852642  0.520107  0.465975
Te6857  Te  0.864006  0.474055  0.500000
Mo3432  Mo  0.867794  0.480634  0.482988
Te6858  Te  0.864006  0.474055  0.465975
Te6859  Te  0.875370  0.480634  0.500000
Mo3433  Mo  0.879158  0.474055  0.482988
Te6860  Te  0.875370  0.480634  0.465975
Te6861  Te  0.864006  0.487213  0.500000
Mo3434  Mo  0.867794  0.493792  0.482988
Te6862  Te  0.864006  0.487213  0.465975
Te6863  Te  0.875370  0.493792  0.500000
Mo3435  Mo  0.879158  0.487213  0.482988
Te6864  Te  0.875370  0.493792  0.465975
Te6865  Te  0.864006  0.500371  0.500000
Mo3436  Mo  0.867794  0.506950  0.482988
Te6866  Te  0.864006  0.500371  0.465975
Te6867  Te  0.875370  0.506950  0.500000
Mo3437  Mo  0.879158  0.500371  0.482988
Te6868  Te  0.875370  0.506950  0.465975
Te6869  Te  0.864006  0.513529  0.500000
Mo3438  Mo  0.867794  0.520107  0.482988
Te6870  Te  0.864006  0.513529  0.465975
Te6871  Te  0.875370  0.520107  0.500000
Mo3439  Mo  0.879158  0.513529  0.482988
Te6872  Te  0.875370  0.520107  0.465975
Te6873  Te  0.886733  0.474055  0.500000
Mo3440  Mo  0.890521  0.480634  0.482988
Te6874  Te  0.886733  0.474055  0.465975
Te6875  Te  0.898097  0.480634  0.500000
Mo3441  Mo  0.901885  0.474055  0.482988
Te6876  Te  0.898097  0.480634  0.465975
Te6877  Te  0.886733  0.487213  0.500000
Mo3442  Mo  0.890521  0.493792  0.482988
Te6878  Te  0.886733  0.487213  0.465975
Te6879  Te  0.898097  0.493792  0.500000
Mo3443  Mo  0.901885  0.487213  0.482988
Te6880  Te  0.898097  0.493792  0.465975
Te6881  Te  0.886733  0.500371  0.500000
Mo3444  Mo  0.890521  0.506950  0.482988
Te6882  Te  0.886733  0.500371  0.465975
Te6883  Te  0.898097  0.506950  0.500000
Mo3445  Mo  0.901885  0.500371  0.482988
Te6884  Te  0.898097  0.506950  0.465975
Te6885  Te  0.886733  0.513529  0.500000
Mo3446  Mo  0.890521  0.520107  0.482988
Te6886  Te  0.886733  0.513529  0.465975
Te6887  Te  0.898097  0.520107  0.500000
Mo3447  Mo  0.901885  0.513529  0.482988
Te6888  Te  0.898097  0.520107  0.465975
Te6889  Te  0.909461  0.474055  0.500000
Mo3448  Mo  0.913248  0.480634  0.482988
Te6890  Te  0.909461  0.474055  0.465975
Te6891  Te  0.920824  0.480634  0.500000
Mo3449  Mo  0.924612  0.474055  0.482988
Te6892  Te  0.920824  0.480634  0.465975
Te6893  Te  0.909461  0.487213  0.500000
Mo3450  Mo  0.913248  0.493792  0.482988
Te6894  Te  0.909461  0.487213  0.465975
Te6895  Te  0.920824  0.493792  0.500000
Mo3451  Mo  0.924612  0.487213  0.482988
Te6896  Te  0.920824  0.493792  0.465975
Te6897  Te  0.909461  0.500371  0.500000
Mo3452  Mo  0.913248  0.506950  0.482988
Te6898  Te  0.909461  0.500371  0.465975
Te6899  Te  0.920824  0.506950  0.500000
Mo3453  Mo  0.924612  0.500371  0.482988
Te6900  Te  0.920824  0.506950  0.465975
Te6901  Te  0.909461  0.513529  0.500000
Mo3454  Mo  0.913248  0.520107  0.482988
Te6902  Te  0.909461  0.513529  0.465975
Te6903  Te  0.920824  0.520107  0.500000
Mo3455  Mo  0.924612  0.513529  0.482988
Te6904  Te  0.920824  0.520107  0.465975
Te6905  Te  0.932188  0.474055  0.500000
Mo3456  Mo  0.935976  0.480634  0.482988
Te6906  Te  0.932188  0.474055  0.465975
Te6907  Te  0.943552  0.480634  0.500000
Mo3457  Mo  0.947339  0.474055  0.482988
Te6908  Te  0.943552  0.480634  0.465975
Te6909  Te  0.932188  0.487213  0.500000
Mo3458  Mo  0.935976  0.493792  0.482988
Te6910  Te  0.932188  0.487213  0.465975
Te6911  Te  0.943552  0.493792  0.500000
Mo3459  Mo  0.947339  0.487213  0.482988
Te6912  Te  0.943552  0.493792  0.465975
Te6913  Te  0.932188  0.500371  0.500000
Mo3460  Mo  0.935976  0.506950  0.482988
Te6914  Te  0.932188  0.500371  0.465975
Te6915  Te  0.943552  0.506950  0.500000
Mo3461  Mo  0.947339  0.500371  0.482988
Te6916  Te  0.943552  0.506950  0.465975
Te6917  Te  0.932188  0.513529  0.500000
Mo3462  Mo  0.935976  0.520107  0.482988
Te6918  Te  0.932188  0.513529  0.465975
Te6919  Te  0.943552  0.520107  0.500000
Mo3463  Mo  0.947339  0.513529  0.482988
Te6920  Te  0.943552  0.520107  0.465975
Te6921  Te  0.954915  0.474055  0.500000
Mo3464  Mo  0.958703  0.480634  0.482988
Te6922  Te  0.954915  0.474055  0.465975
Te6923  Te  0.966279  0.480634  0.500000
Mo3465  Mo  0.970067  0.474055  0.482988
Te6924  Te  0.966279  0.480634  0.465975
Te6925  Te  0.954915  0.487213  0.500000
Mo3466  Mo  0.958703  0.493792  0.482988
Te6926  Te  0.954915  0.487213  0.465975
Te6927  Te  0.966279  0.493792  0.500000
Mo3467  Mo  0.970067  0.487213  0.482988
Te6928  Te  0.966279  0.493792  0.465975
Te6929  Te  0.954915  0.500371  0.500000
Mo3468  Mo  0.958703  0.506950  0.482988
Te6930  Te  0.954915  0.500371  0.465975
Te6931  Te  0.966279  0.506950  0.500000
Mo3469  Mo  0.970067  0.500371  0.482988
Te6932  Te  0.966279  0.506950  0.465975
Te6933  Te  0.954915  0.513529  0.500000
Mo3470  Mo  0.958703  0.520107  0.482988
Te6934  Te  0.954915  0.513529  0.465975
Te6935  Te  0.966279  0.520107  0.500000
Mo3471  Mo  0.970067  0.513529  0.482988
Te6936  Te  0.966279  0.520107  0.465975
Te6937  Te  0.977642  0.474055  0.500000
Mo3472  Mo  0.981430  0.480634  0.482988
Te6938  Te  0.977642  0.474055  0.465975
Te6939  Te  0.989006  0.480634  0.500000
Mo3473  Mo  0.992794  0.474055  0.482988
Te6940  Te  0.989006  0.480634  0.465975
Te6941  Te  0.977642  0.487213  0.500000
Mo3474  Mo  0.981430  0.493792  0.482988
Te6942  Te  0.977642  0.487213  0.465975
Te6943  Te  0.989006  0.493792  0.500000
Mo3475  Mo  0.992794  0.487213  0.482988
Te6944  Te  0.989006  0.493792  0.465975
Te6945  Te  0.977642  0.500371  0.500000
Mo3476  Mo  0.981430  0.506950  0.482988
Te6946  Te  0.977642  0.500371  0.465975
Te6947  Te  0.989006  0.506950  0.500000
Mo3477  Mo  0.992794  0.500371  0.482988
Te6948  Te  0.989006  0.506950  0.465975
Te6949  Te  0.977642  0.513529  0.500000
Mo3478  Mo  0.981430  0.520107  0.482988
Te6950  Te  0.977642  0.513529  0.465975
Te6951  Te  0.989006  0.520107  0.500000
Mo3479  Mo  0.992794  0.513529  0.482988
Te6952  Te  0.989006  0.520107  0.465975
Te6953  Te  0.000370  0.526686  0.500000
Mo3480  Mo  0.004158  0.533265  0.482988
Te6954  Te  0.000370  0.526686  0.465975
Te6955  Te  0.011733  0.533265  0.500000
Mo3481  Mo  0.015521  0.526686  0.482988
Te6956  Te  0.011733  0.533265  0.465975
Te6957  Te  0.000370  0.539844  0.500000
Mo3482  Mo  0.004158  0.546423  0.482988
Te6958  Te  0.000370  0.539844  0.465975
Te6959  Te  0.011733  0.546423  0.500000
Mo3483  Mo  0.015521  0.539844  0.482988
Te6960  Te  0.011733  0.546423  0.465975
Te6961  Te  0.000370  0.553002  0.500000
Mo3484  Mo  0.004158  0.559581  0.482988
Te6962  Te  0.000370  0.553002  0.465975
Te6963  Te  0.011733  0.559581  0.500000
Mo3485  Mo  0.015521  0.553002  0.482988
Te6964  Te  0.011733  0.559581  0.465975
Te6965  Te  0.000370  0.566160  0.500000
Mo3486  Mo  0.004158  0.572739  0.482988
Te6966  Te  0.000370  0.566160  0.465975
Te6967  Te  0.011733  0.572739  0.500000
Mo3487  Mo  0.015521  0.566160  0.482988
Te6968  Te  0.011733  0.572739  0.465975
Te6969  Te  0.023097  0.526686  0.500000
Mo3488  Mo  0.026885  0.533265  0.482988
Te6970  Te  0.023097  0.526686  0.465975
Te6971  Te  0.034461  0.533265  0.500000
Mo3489  Mo  0.038249  0.526686  0.482988
Te6972  Te  0.034461  0.533265  0.465975
Te6973  Te  0.023097  0.539844  0.500000
Mo3490  Mo  0.026885  0.546423  0.482988
Te6974  Te  0.023097  0.539844  0.465975
Te6975  Te  0.034461  0.546423  0.500000
Mo3491  Mo  0.038249  0.539844  0.482988
Te6976  Te  0.034461  0.546423  0.465975
Te6977  Te  0.023097  0.553002  0.500000
Mo3492  Mo  0.026885  0.559581  0.482988
Te6978  Te  0.023097  0.553002  0.465975
Te6979  Te  0.034461  0.559581  0.500000
Mo3493  Mo  0.038249  0.553002  0.482988
Te6980  Te  0.034461  0.559581  0.465975
Te6981  Te  0.023097  0.566160  0.500000
Mo3494  Mo  0.026885  0.572739  0.482988
Te6982  Te  0.023097  0.566160  0.465975
Te6983  Te  0.034461  0.572739  0.500000
Mo3495  Mo  0.038249  0.566160  0.482988
Te6984  Te  0.034461  0.572739  0.465975
Te6985  Te  0.045824  0.526686  0.500000
Mo3496  Mo  0.049612  0.533265  0.482988
Te6986  Te  0.045824  0.526686  0.465975
Te6987  Te  0.057188  0.533265  0.500000
Mo3497  Mo  0.060976  0.526686  0.482988
Te6988  Te  0.057188  0.533265  0.465975
Te6989  Te  0.045824  0.539844  0.500000
Mo3498  Mo  0.049612  0.546423  0.482988
Te6990  Te  0.045824  0.539844  0.465975
Te6991  Te  0.057188  0.546423  0.500000
Mo3499  Mo  0.060976  0.539844  0.482988
Te6992  Te  0.057188  0.546423  0.465975
Te6993  Te  0.045824  0.553002  0.500000
Mo3500  Mo  0.049612  0.559581  0.482988
Te6994  Te  0.045824  0.553002  0.465975
Te6995  Te  0.057188  0.559581  0.500000
Mo3501  Mo  0.060976  0.553002  0.482988
Te6996  Te  0.057188  0.559581  0.465975
Te6997  Te  0.045824  0.566160  0.500000
Mo3502  Mo  0.049612  0.572739  0.482988
Te6998  Te  0.045824  0.566160  0.465975
Te6999  Te  0.057188  0.572739  0.500000
Mo3503  Mo  0.060976  0.566160  0.482988
Te7000  Te  0.057188  0.572739  0.465975
Te7001  Te  0.068552  0.526686  0.500000
Mo3504  Mo  0.072339  0.533265  0.482988
Te7002  Te  0.068552  0.526686  0.465975
Te7003  Te  0.079915  0.533265  0.500000
Mo3505  Mo  0.083703  0.526686  0.482988
Te7004  Te  0.079915  0.533265  0.465975
Te7005  Te  0.068552  0.539844  0.500000
Mo3506  Mo  0.072339  0.546423  0.482988
Te7006  Te  0.068552  0.539844  0.465975
Te7007  Te  0.079915  0.546423  0.500000
Mo3507  Mo  0.083703  0.539844  0.482988
Te7008  Te  0.079915  0.546423  0.465975
Te7009  Te  0.068552  0.553002  0.500000
Mo3508  Mo  0.072339  0.559581  0.482988
Te7010  Te  0.068552  0.553002  0.465975
Te7011  Te  0.079915  0.559581  0.500000
Mo3509  Mo  0.083703  0.553002  0.482988
Te7012  Te  0.079915  0.559581  0.465975
Te7013  Te  0.068552  0.566160  0.500000
Mo3510  Mo  0.072339  0.572739  0.482988
Te7014  Te  0.068552  0.566160  0.465975
Te7015  Te  0.079915  0.572739  0.500000
Mo3511  Mo  0.083703  0.566160  0.482988
Te7016  Te  0.079915  0.572739  0.465975
Te7017  Te  0.091279  0.526686  0.500000
Mo3512  Mo  0.095067  0.533265  0.482988
Te7018  Te  0.091279  0.526686  0.465975
Te7019  Te  0.102642  0.533265  0.500000
Mo3513  Mo  0.106430  0.526686  0.482988
Te7020  Te  0.102642  0.533265  0.465975
Te7021  Te  0.091279  0.539844  0.500000
Mo3514  Mo  0.095067  0.546423  0.482988
Te7022  Te  0.091279  0.539844  0.465975
Te7023  Te  0.102642  0.546423  0.500000
Mo3515  Mo  0.106430  0.539844  0.482988
Te7024  Te  0.102642  0.546423  0.465975
Te7025  Te  0.091279  0.553002  0.500000
Mo3516  Mo  0.095067  0.559581  0.482988
Te7026  Te  0.091279  0.553002  0.465975
Te7027  Te  0.102642  0.559581  0.500000
Mo3517  Mo  0.106430  0.553002  0.482988
Te7028  Te  0.102642  0.559581  0.465975
Te7029  Te  0.091279  0.566160  0.500000
Mo3518  Mo  0.095067  0.572739  0.482988
Te7030  Te  0.091279  0.566160  0.465975
Te7031  Te  0.102642  0.572739  0.500000
Mo3519  Mo  0.106430  0.566160  0.482988
Te7032  Te  0.102642  0.572739  0.465975
Te7033  Te  0.114006  0.526686  0.500000
Mo3520  Mo  0.117794  0.533265  0.482988
Te7034  Te  0.114006  0.526686  0.465975
Te7035  Te  0.125370  0.533265  0.500000
Mo3521  Mo  0.129158  0.526686  0.482988
Te7036  Te  0.125370  0.533265  0.465975
Te7037  Te  0.114006  0.539844  0.500000
Mo3522  Mo  0.117794  0.546423  0.482988
Te7038  Te  0.114006  0.539844  0.465975
Te7039  Te  0.125370  0.546423  0.500000
Mo3523  Mo  0.129158  0.539844  0.482988
Te7040  Te  0.125370  0.546423  0.465975
Te7041  Te  0.114006  0.553002  0.500000
Mo3524  Mo  0.117794  0.559581  0.482988
Te7042  Te  0.114006  0.553002  0.465975
Te7043  Te  0.125370  0.559581  0.500000
Mo3525  Mo  0.129158  0.553002  0.482988
Te7044  Te  0.125370  0.559581  0.465975
Te7045  Te  0.114006  0.566160  0.500000
Mo3526  Mo  0.117794  0.572739  0.482988
Te7046  Te  0.114006  0.566160  0.465975
Te7047  Te  0.125370  0.572739  0.500000
Mo3527  Mo  0.129158  0.566160  0.482988
Te7048  Te  0.125370  0.572739  0.465975
Te7049  Te  0.136733  0.526686  0.500000
Mo3528  Mo  0.140521  0.533265  0.482988
Te7050  Te  0.136733  0.526686  0.465975
Te7051  Te  0.148097  0.533265  0.500000
Mo3529  Mo  0.151885  0.526686  0.482988
Te7052  Te  0.148097  0.533265  0.465975
Te7053  Te  0.136733  0.539844  0.500000
Mo3530  Mo  0.140521  0.546423  0.482988
Te7054  Te  0.136733  0.539844  0.465975
Te7055  Te  0.148097  0.546423  0.500000
Mo3531  Mo  0.151885  0.539844  0.482988
Te7056  Te  0.148097  0.546423  0.465975
Te7057  Te  0.136733  0.553002  0.500000
Mo3532  Mo  0.140521  0.559581  0.482988
Te7058  Te  0.136733  0.553002  0.465975
Te7059  Te  0.148097  0.559581  0.500000
Mo3533  Mo  0.151885  0.553002  0.482988
Te7060  Te  0.148097  0.559581  0.465975
Te7061  Te  0.136733  0.566160  0.500000
Mo3534  Mo  0.140521  0.572739  0.482988
Te7062  Te  0.136733  0.566160  0.465975
Te7063  Te  0.148097  0.572739  0.500000
Mo3535  Mo  0.151885  0.566160  0.482988
Te7064  Te  0.148097  0.572739  0.465975
Te7065  Te  0.159461  0.526686  0.500000
Mo3536  Mo  0.163248  0.533265  0.482988
Te7066  Te  0.159461  0.526686  0.465975
Te7067  Te  0.170824  0.533265  0.500000
Mo3537  Mo  0.174612  0.526686  0.482988
Te7068  Te  0.170824  0.533265  0.465975
Te7069  Te  0.159461  0.539844  0.500000
Mo3538  Mo  0.163248  0.546423  0.482988
Te7070  Te  0.159461  0.539844  0.465975
Te7071  Te  0.170824  0.546423  0.500000
Mo3539  Mo  0.174612  0.539844  0.482988
Te7072  Te  0.170824  0.546423  0.465975
Te7073  Te  0.159461  0.553002  0.500000
Mo3540  Mo  0.163248  0.559581  0.482988
Te7074  Te  0.159461  0.553002  0.465975
Te7075  Te  0.170824  0.559581  0.500000
Mo3541  Mo  0.174612  0.553002  0.482988
Te7076  Te  0.170824  0.559581  0.465975
Te7077  Te  0.159461  0.566160  0.500000
Mo3542  Mo  0.163248  0.572739  0.482988
Te7078  Te  0.159461  0.566160  0.465975
Te7079  Te  0.170824  0.572739  0.500000
Mo3543  Mo  0.174612  0.566160  0.482988
Te7080  Te  0.170824  0.572739  0.465975
Te7081  Te  0.182188  0.526686  0.500000
Mo3544  Mo  0.185976  0.533265  0.482988
Te7082  Te  0.182188  0.526686  0.465975
Te7083  Te  0.193551  0.533265  0.500000
Mo3545  Mo  0.197339  0.526686  0.482988
Te7084  Te  0.193551  0.533265  0.465975
Te7085  Te  0.182188  0.539844  0.500000
Mo3546  Mo  0.185976  0.546423  0.482988
Te7086  Te  0.182188  0.539844  0.465975
Te7087  Te  0.193551  0.546423  0.500000
Mo3547  Mo  0.197339  0.539844  0.482988
Te7088  Te  0.193551  0.546423  0.465975
Te7089  Te  0.182188  0.553002  0.500000
Mo3548  Mo  0.185976  0.559581  0.482988
Te7090  Te  0.182188  0.553002  0.465975
Te7091  Te  0.193551  0.559581  0.500000
Mo3549  Mo  0.197339  0.553002  0.482988
Te7092  Te  0.193551  0.559581  0.465975
Te7093  Te  0.182188  0.566160  0.500000
Mo3550  Mo  0.185976  0.572739  0.482988
Te7094  Te  0.182188  0.566160  0.465975
Te7095  Te  0.193551  0.572739  0.500000
Mo3551  Mo  0.197339  0.566160  0.482988
Te7096  Te  0.193551  0.572739  0.465975
Te7097  Te  0.204915  0.526686  0.500000
Mo3552  Mo  0.208703  0.533265  0.482988
Te7098  Te  0.204915  0.526686  0.465975
Te7099  Te  0.216279  0.533265  0.500000
Mo3553  Mo  0.220067  0.526686  0.482988
Te7100  Te  0.216279  0.533265  0.465975
Te7101  Te  0.204915  0.539844  0.500000
Mo3554  Mo  0.208703  0.546423  0.482988
Te7102  Te  0.204915  0.539844  0.465975
Te7103  Te  0.216279  0.546423  0.500000
Mo3555  Mo  0.220067  0.539844  0.482988
Te7104  Te  0.216279  0.546423  0.465975
Te7105  Te  0.204915  0.553002  0.500000
Mo3556  Mo  0.208703  0.559581  0.482988
Te7106  Te  0.204915  0.553002  0.465975
Te7107  Te  0.216279  0.559581  0.500000
Mo3557  Mo  0.220067  0.553002  0.482988
Te7108  Te  0.216279  0.559581  0.465975
Te7109  Te  0.204915  0.566160  0.500000
Mo3558  Mo  0.208703  0.572739  0.482988
Te7110  Te  0.204915  0.566160  0.465975
Te7111  Te  0.216279  0.572739  0.500000
Mo3559  Mo  0.220067  0.566160  0.482988
Te7112  Te  0.216279  0.572739  0.465975
Te7113  Te  0.227642  0.526686  0.500000
Mo3560  Mo  0.231430  0.533265  0.482988
Te7114  Te  0.227642  0.526686  0.465975
Te7115  Te  0.239006  0.533265  0.500000
Mo3561  Mo  0.242794  0.526686  0.482988
Te7116  Te  0.239006  0.533265  0.465975
Te7117  Te  0.227642  0.539844  0.500000
Mo3562  Mo  0.231430  0.546423  0.482988
Te7118  Te  0.227642  0.539844  0.465975
Te7119  Te  0.239006  0.546423  0.500000
Mo3563  Mo  0.242794  0.539844  0.482988
Te7120  Te  0.239006  0.546423  0.465975
Te7121  Te  0.227642  0.553002  0.500000
Mo3564  Mo  0.231430  0.559581  0.482988
Te7122  Te  0.227642  0.553002  0.465975
Te7123  Te  0.239006  0.559581  0.500000
Mo3565  Mo  0.242794  0.553002  0.482988
Te7124  Te  0.239006  0.559581  0.465975
Te7125  Te  0.227642  0.566160  0.500000
Mo3566  Mo  0.231430  0.572739  0.482988
Te7126  Te  0.227642  0.566160  0.465975
Te7127  Te  0.239006  0.572739  0.500000
Mo3567  Mo  0.242794  0.566160  0.482988
Te7128  Te  0.239006  0.572739  0.465975
Te7129  Te  0.250370  0.526686  0.500000
Mo3568  Mo  0.254158  0.533265  0.482988
Te7130  Te  0.250370  0.526686  0.465975
Te7131  Te  0.261733  0.533265  0.500000
Mo3569  Mo  0.265521  0.526686  0.482988
Te7132  Te  0.261733  0.533265  0.465975
Te7133  Te  0.250370  0.539844  0.500000
Mo3570  Mo  0.254158  0.546423  0.482988
Te7134  Te  0.250370  0.539844  0.465975
Te7135  Te  0.261733  0.546423  0.500000
Mo3571  Mo  0.265521  0.539844  0.482988
Te7136  Te  0.261733  0.546423  0.465975
Te7137  Te  0.250370  0.553002  0.500000
Mo3572  Mo  0.254158  0.559581  0.482988
Te7138  Te  0.250370  0.553002  0.465975
Te7139  Te  0.261733  0.559581  0.500000
Mo3573  Mo  0.265521  0.553002  0.482988
Te7140  Te  0.261733  0.559581  0.465975
Te7141  Te  0.250370  0.566160  0.500000
Mo3574  Mo  0.254158  0.572739  0.482988
Te7142  Te  0.250370  0.566160  0.465975
Te7143  Te  0.261733  0.572739  0.500000
Mo3575  Mo  0.265521  0.566160  0.482988
Te7144  Te  0.261733  0.572739  0.465975
Te7145  Te  0.273097  0.526686  0.500000
Mo3576  Mo  0.276885  0.533265  0.482988
Te7146  Te  0.273097  0.526686  0.465975
Te7147  Te  0.284461  0.533265  0.500000
Mo3577  Mo  0.288248  0.526686  0.482988
Te7148  Te  0.284461  0.533265  0.465975
Te7149  Te  0.273097  0.539844  0.500000
Mo3578  Mo  0.276885  0.546423  0.482988
Te7150  Te  0.273097  0.539844  0.465975
Te7151  Te  0.284461  0.546423  0.500000
Mo3579  Mo  0.288248  0.539844  0.482988
Te7152  Te  0.284461  0.546423  0.465975
Te7153  Te  0.273097  0.553002  0.500000
Mo3580  Mo  0.276885  0.559581  0.482988
Te7154  Te  0.273097  0.553002  0.465975
Te7155  Te  0.284461  0.559581  0.500000
Mo3581  Mo  0.288248  0.553002  0.482988
Te7156  Te  0.284461  0.559581  0.465975
Te7157  Te  0.273097  0.566160  0.500000
Mo3582  Mo  0.276885  0.572739  0.482988
Te7158  Te  0.273097  0.566160  0.465975
Te7159  Te  0.284461  0.572739  0.500000
Mo3583  Mo  0.288248  0.566160  0.482988
Te7160  Te  0.284461  0.572739  0.465975
Te7161  Te  0.295824  0.526686  0.500000
Mo3584  Mo  0.299612  0.533265  0.482988
Te7162  Te  0.295824  0.526686  0.465975
Te7163  Te  0.307188  0.533265  0.500000
Mo3585  Mo  0.310976  0.526686  0.482988
Te7164  Te  0.307188  0.533265  0.465975
Te7165  Te  0.295824  0.539844  0.500000
Mo3586  Mo  0.299612  0.546423  0.482988
Te7166  Te  0.295824  0.539844  0.465975
Te7167  Te  0.307188  0.546423  0.500000
Mo3587  Mo  0.310976  0.539844  0.482988
Te7168  Te  0.307188  0.546423  0.465975
Te7169  Te  0.295824  0.553002  0.500000
Mo3588  Mo  0.299612  0.559581  0.482988
Te7170  Te  0.295824  0.553002  0.465975
Te7171  Te  0.307188  0.559581  0.500000
Mo3589  Mo  0.310976  0.553002  0.482988
Te7172  Te  0.307188  0.559581  0.465975
Te7173  Te  0.295824  0.566160  0.500000
Mo3590  Mo  0.299612  0.572739  0.482988
Te7174  Te  0.295824  0.566160  0.465975
Te7175  Te  0.307188  0.572739  0.500000
Mo3591  Mo  0.310976  0.566160  0.482988
Te7176  Te  0.307188  0.572739  0.465975
Te7177  Te  0.318551  0.526686  0.500000
Mo3592  Mo  0.322339  0.533265  0.482988
Te7178  Te  0.318551  0.526686  0.465975
Te7179  Te  0.329915  0.533265  0.500000
Mo3593  Mo  0.333703  0.526686  0.482988
Te7180  Te  0.329915  0.533265  0.465975
Te7181  Te  0.318551  0.539844  0.500000
Mo3594  Mo  0.322339  0.546423  0.482988
Te7182  Te  0.318551  0.539844  0.465975
Te7183  Te  0.329915  0.546423  0.500000
Mo3595  Mo  0.333703  0.539844  0.482988
Te7184  Te  0.329915  0.546423  0.465975
Te7185  Te  0.318551  0.553002  0.500000
Mo3596  Mo  0.322339  0.559581  0.482988
Te7186  Te  0.318551  0.553002  0.465975
Te7187  Te  0.329915  0.559581  0.500000
Mo3597  Mo  0.333703  0.553002  0.482988
Te7188  Te  0.329915  0.559581  0.465975
Te7189  Te  0.318551  0.566160  0.500000
Mo3598  Mo  0.322339  0.572739  0.482988
Te7190  Te  0.318551  0.566160  0.465975
Te7191  Te  0.329915  0.572739  0.500000
Mo3599  Mo  0.333703  0.566160  0.482988
Te7192  Te  0.329915  0.572739  0.465975
Te7193  Te  0.341279  0.526686  0.500000
Mo3600  Mo  0.345067  0.533265  0.482988
Te7194  Te  0.341279  0.526686  0.465975
Te7195  Te  0.352642  0.533265  0.500000
Mo3601  Mo  0.356430  0.526686  0.482988
Te7196  Te  0.352642  0.533265  0.465975
Te7197  Te  0.341279  0.539844  0.500000
Mo3602  Mo  0.345067  0.546423  0.482988
Te7198  Te  0.341279  0.539844  0.465975
Te7199  Te  0.352642  0.546423  0.500000
Mo3603  Mo  0.356430  0.539844  0.482988
Te7200  Te  0.352642  0.546423  0.465975
Te7201  Te  0.341279  0.553002  0.500000
Mo3604  Mo  0.345067  0.559581  0.482988
Te7202  Te  0.341279  0.553002  0.465975
Te7203  Te  0.352642  0.559581  0.500000
Mo3605  Mo  0.356430  0.553002  0.482988
Te7204  Te  0.352642  0.559581  0.465975
Te7205  Te  0.341279  0.566160  0.500000
Mo3606  Mo  0.345067  0.572739  0.482988
Te7206  Te  0.341279  0.566160  0.465975
Te7207  Te  0.352642  0.572739  0.500000
Mo3607  Mo  0.356430  0.566160  0.482988
Te7208  Te  0.352642  0.572739  0.465975
Te7209  Te  0.364006  0.526686  0.500000
Mo3608  Mo  0.367794  0.533265  0.482988
Te7210  Te  0.364006  0.526686  0.465975
Te7211  Te  0.375370  0.533265  0.500000
Mo3609  Mo  0.379158  0.526686  0.482988
Te7212  Te  0.375370  0.533265  0.465975
Te7213  Te  0.364006  0.539844  0.500000
Mo3610  Mo  0.367794  0.546423  0.482988
Te7214  Te  0.364006  0.539844  0.465975
Te7215  Te  0.375370  0.546423  0.500000
Mo3611  Mo  0.379158  0.539844  0.482988
Te7216  Te  0.375370  0.546423  0.465975
Te7217  Te  0.364006  0.553002  0.500000
Mo3612  Mo  0.367794  0.559581  0.482988
Te7218  Te  0.364006  0.553002  0.465975
Te7219  Te  0.375370  0.559581  0.500000
Mo3613  Mo  0.379158  0.553002  0.482988
Te7220  Te  0.375370  0.559581  0.465975
Te7221  Te  0.364006  0.566160  0.500000
Mo3614  Mo  0.367794  0.572739  0.482988
Te7222  Te  0.364006  0.566160  0.465975
Te7223  Te  0.375370  0.572739  0.500000
Mo3615  Mo  0.379158  0.566160  0.482988
Te7224  Te  0.375370  0.572739  0.465975
Te7225  Te  0.386733  0.526686  0.500000
Mo3616  Mo  0.390521  0.533265  0.482988
Te7226  Te  0.386733  0.526686  0.465975
Te7227  Te  0.398097  0.533265  0.500000
Mo3617  Mo  0.401885  0.526686  0.482988
Te7228  Te  0.398097  0.533265  0.465975
Te7229  Te  0.386733  0.539844  0.500000
Mo3618  Mo  0.390521  0.546423  0.482988
Te7230  Te  0.386733  0.539844  0.465975
Te7231  Te  0.398097  0.546423  0.500000
Mo3619  Mo  0.401885  0.539844  0.482988
Te7232  Te  0.398097  0.546423  0.465975
Te7233  Te  0.386733  0.553002  0.500000
Mo3620  Mo  0.390521  0.559581  0.482988
Te7234  Te  0.386733  0.553002  0.465975
Te7235  Te  0.398097  0.559581  0.500000
Mo3621  Mo  0.401885  0.553002  0.482988
Te7236  Te  0.398097  0.559581  0.465975
Te7237  Te  0.386733  0.566160  0.500000
Mo3622  Mo  0.390521  0.572739  0.482988
Te7238  Te  0.386733  0.566160  0.465975
Te7239  Te  0.398097  0.572739  0.500000
Mo3623  Mo  0.401885  0.566160  0.482988
Te7240  Te  0.398097  0.572739  0.465975
Te7241  Te  0.409461  0.526686  0.500000
Mo3624  Mo  0.413248  0.533265  0.482988
Te7242  Te  0.409461  0.526686  0.465975
Te7243  Te  0.420824  0.533265  0.500000
Mo3625  Mo  0.424612  0.526686  0.482988
Te7244  Te  0.420824  0.533265  0.465975
Te7245  Te  0.409461  0.539844  0.500000
Mo3626  Mo  0.413248  0.546423  0.482988
Te7246  Te  0.409461  0.539844  0.465975
Te7247  Te  0.420824  0.546423  0.500000
Mo3627  Mo  0.424612  0.539844  0.482988
Te7248  Te  0.420824  0.546423  0.465975
Te7249  Te  0.409461  0.553002  0.500000
Mo3628  Mo  0.413248  0.559581  0.482988
Te7250  Te  0.409461  0.553002  0.465975
Te7251  Te  0.420824  0.559581  0.500000
Mo3629  Mo  0.424612  0.553002  0.482988
Te7252  Te  0.420824  0.559581  0.465975
Te7253  Te  0.409461  0.566160  0.500000
Mo3630  Mo  0.413248  0.572739  0.482988
Te7254  Te  0.409461  0.566160  0.465975
Te7255  Te  0.420824  0.572739  0.500000
Mo3631  Mo  0.424612  0.566160  0.482988
Te7256  Te  0.420824  0.572739  0.465975
Te7257  Te  0.432188  0.526686  0.500000
Mo3632  Mo  0.435976  0.533265  0.482988
Te7258  Te  0.432188  0.526686  0.465975
Te7259  Te  0.443552  0.533265  0.500000
Mo3633  Mo  0.447339  0.526686  0.482988
Te7260  Te  0.443552  0.533265  0.465975
Te7261  Te  0.432188  0.539844  0.500000
Mo3634  Mo  0.435976  0.546423  0.482988
Te7262  Te  0.432188  0.539844  0.465975
Te7263  Te  0.443552  0.546423  0.500000
Mo3635  Mo  0.447339  0.539844  0.482988
Te7264  Te  0.443552  0.546423  0.465975
Te7265  Te  0.432188  0.553002  0.500000
Mo3636  Mo  0.435976  0.559581  0.482988
Te7266  Te  0.432188  0.553002  0.465975
Te7267  Te  0.443552  0.559581  0.500000
Mo3637  Mo  0.447339  0.553002  0.482988
Te7268  Te  0.443552  0.559581  0.465975
Te7269  Te  0.432188  0.566160  0.500000
Mo3638  Mo  0.435976  0.572739  0.482988
Te7270  Te  0.432188  0.566160  0.465975
Te7271  Te  0.443552  0.572739  0.500000
Mo3639  Mo  0.447339  0.566160  0.482988
Te7272  Te  0.443552  0.572739  0.465975
Te7273  Te  0.454915  0.526686  0.500000
Mo3640  Mo  0.458703  0.533265  0.482988
Te7274  Te  0.454915  0.526686  0.465975
Te7275  Te  0.466279  0.533265  0.500000
Mo3641  Mo  0.470067  0.526686  0.482988
Te7276  Te  0.466279  0.533265  0.465975
Te7277  Te  0.454915  0.539844  0.500000
Mo3642  Mo  0.458703  0.546423  0.482988
Te7278  Te  0.454915  0.539844  0.465975
Te7279  Te  0.466279  0.546423  0.500000
Mo3643  Mo  0.470067  0.539844  0.482988
Te7280  Te  0.466279  0.546423  0.465975
Te7281  Te  0.454915  0.553002  0.500000
Mo3644  Mo  0.458703  0.559581  0.482988
Te7282  Te  0.454915  0.553002  0.465975
Te7283  Te  0.466279  0.559581  0.500000
Mo3645  Mo  0.470067  0.553002  0.482988
Te7284  Te  0.466279  0.559581  0.465975
Te7285  Te  0.454915  0.566160  0.500000
Mo3646  Mo  0.458703  0.572739  0.482988
Te7286  Te  0.454915  0.566160  0.465975
Te7287  Te  0.466279  0.572739  0.500000
Mo3647  Mo  0.470067  0.566160  0.482988
Te7288  Te  0.466279  0.572739  0.465975
Te7289  Te  0.477642  0.526686  0.500000
Mo3648  Mo  0.481430  0.533265  0.482988
Te7290  Te  0.477642  0.526686  0.465975
Te7291  Te  0.489006  0.533265  0.500000
Te7292  Te  0.489006  0.533265  0.465975
Te7293  Te  0.477642  0.539844  0.500000
Mo3649  Mo  0.481430  0.546423  0.482988
Te7294  Te  0.477642  0.539844  0.465975
Te7295  Te  0.489006  0.546423  0.500000
Mo3650  Mo  0.492794  0.539844  0.482988
Te7296  Te  0.489006  0.546423  0.465975
Te7297  Te  0.477642  0.553002  0.500000
Mo3651  Mo  0.481430  0.559581  0.482988
Te7298  Te  0.477642  0.553002  0.465975
Te7299  Te  0.489006  0.559581  0.500000
Mo3652  Mo  0.492794  0.553002  0.482988
Te7300  Te  0.489006  0.559581  0.465975
Te7301  Te  0.477642  0.566160  0.500000
Mo3653  Mo  0.481430  0.572739  0.482988
Te7302  Te  0.477642  0.566160  0.465975
Te7303  Te  0.489006  0.572739  0.500000
Mo3654  Mo  0.492794  0.566160  0.482988
Te7304  Te  0.489006  0.572739  0.465975
Te7305  Te  0.511733  0.533265  0.500000
Mo3655  Mo  0.515521  0.526686  0.482988
Te7306  Te  0.511733  0.533265  0.465975
Mo3656  Mo  0.504158  0.546423  0.482988
Te7307  Te  0.511733  0.546423  0.500000
Mo3657  Mo  0.515521  0.539844  0.482988
Te7308  Te  0.511733  0.546423  0.465975
Te7309  Te  0.500370  0.553002  0.500000
Mo3658  Mo  0.504158  0.559581  0.482988
Te7310  Te  0.500370  0.553002  0.465975
Te7311  Te  0.511733  0.559581  0.500000
Mo3659  Mo  0.515521  0.553002  0.482988
Te7312  Te  0.511733  0.559581  0.465975
Te7313  Te  0.500370  0.566160  0.500000
Mo3660  Mo  0.504158  0.572739  0.482988
Te7314  Te  0.500370  0.566160  0.465975
Te7315  Te  0.511733  0.572739  0.500000
Mo3661  Mo  0.515521  0.566160  0.482988
Te7316  Te  0.511733  0.572739  0.465975
Te7317  Te  0.523097  0.526686  0.500000
Mo3662  Mo  0.526885  0.533265  0.482988
Te7318  Te  0.523097  0.526686  0.465975
Te7319  Te  0.534461  0.533265  0.500000
Mo3663  Mo  0.538249  0.526686  0.482988
Te7320  Te  0.534461  0.533265  0.465975
Te7321  Te  0.523097  0.539844  0.500000
Mo3664  Mo  0.526885  0.546423  0.482988
Te7322  Te  0.523097  0.539844  0.465975
Te7323  Te  0.534461  0.546423  0.500000
Mo3665  Mo  0.538249  0.539844  0.482988
Te7324  Te  0.534461  0.546423  0.465975
Te7325  Te  0.523097  0.553002  0.500000
Mo3666  Mo  0.526885  0.559581  0.482988
Te7326  Te  0.523097  0.553002  0.465975
Te7327  Te  0.534461  0.559581  0.500000
Mo3667  Mo  0.538249  0.553002  0.482988
Te7328  Te  0.534461  0.559581  0.465975
Te7329  Te  0.523097  0.566160  0.500000
Mo3668  Mo  0.526885  0.572739  0.482988
Te7330  Te  0.523097  0.566160  0.465975
Te7331  Te  0.534461  0.572739  0.500000
Mo3669  Mo  0.538249  0.566160  0.482988
Te7332  Te  0.534461  0.572739  0.465975
Te7333  Te  0.545824  0.526686  0.500000
Mo3670  Mo  0.549612  0.533265  0.482988
Te7334  Te  0.545824  0.526686  0.465975
Te7335  Te  0.557188  0.533265  0.500000
Mo3671  Mo  0.560976  0.526686  0.482988
Te7336  Te  0.557188  0.533265  0.465975
Te7337  Te  0.545824  0.539844  0.500000
Mo3672  Mo  0.549612  0.546423  0.482988
Te7338  Te  0.545824  0.539844  0.465975
Te7339  Te  0.557188  0.546423  0.500000
Mo3673  Mo  0.560976  0.539844  0.482988
Te7340  Te  0.557188  0.546423  0.465975
Te7341  Te  0.545824  0.553002  0.500000
Mo3674  Mo  0.549612  0.559581  0.482988
Te7342  Te  0.545824  0.553002  0.465975
Te7343  Te  0.557188  0.559581  0.500000
Mo3675  Mo  0.560976  0.553002  0.482988
Te7344  Te  0.557188  0.559581  0.465975
Te7345  Te  0.545824  0.566160  0.500000
Mo3676  Mo  0.549612  0.572739  0.482988
Te7346  Te  0.545824  0.566160  0.465975
Te7347  Te  0.557188  0.572739  0.500000
Mo3677  Mo  0.560976  0.566160  0.482988
Te7348  Te  0.557188  0.572739  0.465975
Te7349  Te  0.568552  0.526686  0.500000
Mo3678  Mo  0.572339  0.533265  0.482988
Te7350  Te  0.568552  0.526686  0.465975
Te7351  Te  0.579915  0.533265  0.500000
Mo3679  Mo  0.583703  0.526686  0.482988
Te7352  Te  0.579915  0.533265  0.465975
Te7353  Te  0.568552  0.539844  0.500000
Mo3680  Mo  0.572339  0.546423  0.482988
Te7354  Te  0.568552  0.539844  0.465975
Te7355  Te  0.579915  0.546423  0.500000
Mo3681  Mo  0.583703  0.539844  0.482988
Te7356  Te  0.579915  0.546423  0.465975
Te7357  Te  0.568552  0.553002  0.500000
Mo3682  Mo  0.572339  0.559581  0.482988
Te7358  Te  0.568552  0.553002  0.465975
Te7359  Te  0.579915  0.559581  0.500000
Mo3683  Mo  0.583703  0.553002  0.482988
Te7360  Te  0.579915  0.559581  0.465975
Te7361  Te  0.568552  0.566160  0.500000
Mo3684  Mo  0.572339  0.572739  0.482988
Te7362  Te  0.568552  0.566160  0.465975
Te7363  Te  0.579915  0.572739  0.500000
Mo3685  Mo  0.583703  0.566160  0.482988
Te7364  Te  0.579915  0.572739  0.465975
Te7365  Te  0.591279  0.526686  0.500000
Mo3686  Mo  0.595067  0.533265  0.482988
Te7366  Te  0.591279  0.526686  0.465975
Te7367  Te  0.602642  0.533265  0.500000
Mo3687  Mo  0.606430  0.526686  0.482988
Te7368  Te  0.602642  0.533265  0.465975
Te7369  Te  0.591279  0.539844  0.500000
Mo3688  Mo  0.595067  0.546423  0.482988
Te7370  Te  0.591279  0.539844  0.465975
Te7371  Te  0.602642  0.546423  0.500000
Mo3689  Mo  0.606430  0.539844  0.482988
Te7372  Te  0.602642  0.546423  0.465975
Te7373  Te  0.591279  0.553002  0.500000
Mo3690  Mo  0.595067  0.559581  0.482988
Te7374  Te  0.591279  0.553002  0.465975
Te7375  Te  0.602642  0.559581  0.500000
Mo3691  Mo  0.606430  0.553002  0.482988
Te7376  Te  0.602642  0.559581  0.465975
Te7377  Te  0.591279  0.566160  0.500000
Mo3692  Mo  0.595067  0.572739  0.482988
Te7378  Te  0.591279  0.566160  0.465975
Te7379  Te  0.602642  0.572739  0.500000
Mo3693  Mo  0.606430  0.566160  0.482988
Te7380  Te  0.602642  0.572739  0.465975
Te7381  Te  0.614006  0.526686  0.500000
Mo3694  Mo  0.617794  0.533265  0.482988
Te7382  Te  0.614006  0.526686  0.465975
Te7383  Te  0.625370  0.533265  0.500000
Mo3695  Mo  0.629158  0.526686  0.482988
Te7384  Te  0.625370  0.533265  0.465975
Te7385  Te  0.614006  0.539844  0.500000
Mo3696  Mo  0.617794  0.546423  0.482988
Te7386  Te  0.614006  0.539844  0.465975
Te7387  Te  0.625370  0.546423  0.500000
Mo3697  Mo  0.629158  0.539844  0.482988
Te7388  Te  0.625370  0.546423  0.465975
Te7389  Te  0.614006  0.553002  0.500000
Mo3698  Mo  0.617794  0.559581  0.482988
Te7390  Te  0.614006  0.553002  0.465975
Te7391  Te  0.625370  0.559581  0.500000
Mo3699  Mo  0.629158  0.553002  0.482988
Te7392  Te  0.625370  0.559581  0.465975
Te7393  Te  0.614006  0.566160  0.500000
Mo3700  Mo  0.617794  0.572739  0.482988
Te7394  Te  0.614006  0.566160  0.465975
Te7395  Te  0.625370  0.572739  0.500000
Mo3701  Mo  0.629158  0.566160  0.482988
Te7396  Te  0.625370  0.572739  0.465975
Te7397  Te  0.636733  0.526686  0.500000
Mo3702  Mo  0.640521  0.533265  0.482988
Te7398  Te  0.636733  0.526686  0.465975
Te7399  Te  0.648097  0.533265  0.500000
Mo3703  Mo  0.651885  0.526686  0.482988
Te7400  Te  0.648097  0.533265  0.465975
Te7401  Te  0.636733  0.539844  0.500000
Mo3704  Mo  0.640521  0.546423  0.482988
Te7402  Te  0.636733  0.539844  0.465975
Te7403  Te  0.648097  0.546423  0.500000
Mo3705  Mo  0.651885  0.539844  0.482988
Te7404  Te  0.648097  0.546423  0.465975
Te7405  Te  0.636733  0.553002  0.500000
Mo3706  Mo  0.640521  0.559581  0.482988
Te7406  Te  0.636733  0.553002  0.465975
Te7407  Te  0.648097  0.559581  0.500000
Mo3707  Mo  0.651885  0.553002  0.482988
Te7408  Te  0.648097  0.559581  0.465975
Te7409  Te  0.636733  0.566160  0.500000
Mo3708  Mo  0.640521  0.572739  0.482988
Te7410  Te  0.636733  0.566160  0.465975
Te7411  Te  0.648097  0.572739  0.500000
Mo3709  Mo  0.651885  0.566160  0.482988
Te7412  Te  0.648097  0.572739  0.465975
Te7413  Te  0.659461  0.526686  0.500000
Mo3710  Mo  0.663248  0.533265  0.482988
Te7414  Te  0.659461  0.526686  0.465975
Te7415  Te  0.670824  0.533265  0.500000
Mo3711  Mo  0.674612  0.526686  0.482988
Te7416  Te  0.670824  0.533265  0.465975
Te7417  Te  0.659461  0.539844  0.500000
Mo3712  Mo  0.663248  0.546423  0.482988
Te7418  Te  0.659461  0.539844  0.465975
Te7419  Te  0.670824  0.546423  0.500000
Mo3713  Mo  0.674612  0.539844  0.482988
Te7420  Te  0.670824  0.546423  0.465975
Te7421  Te  0.659461  0.553002  0.500000
Mo3714  Mo  0.663248  0.559581  0.482988
Te7422  Te  0.659461  0.553002  0.465975
Te7423  Te  0.670824  0.559581  0.500000
Mo3715  Mo  0.674612  0.553002  0.482988
Te7424  Te  0.670824  0.559581  0.465975
Te7425  Te  0.659461  0.566160  0.500000
Mo3716  Mo  0.663248  0.572739  0.482988
Te7426  Te  0.659461  0.566160  0.465975
Te7427  Te  0.670824  0.572739  0.500000
Mo3717  Mo  0.674612  0.566160  0.482988
Te7428  Te  0.670824  0.572739  0.465975
Te7429  Te  0.682188  0.526686  0.500000
Mo3718  Mo  0.685976  0.533265  0.482988
Te7430  Te  0.682188  0.526686  0.465975
Te7431  Te  0.693551  0.533265  0.500000
Mo3719  Mo  0.697339  0.526686  0.482988
Te7432  Te  0.693551  0.533265  0.465975
Te7433  Te  0.682188  0.539844  0.500000
Mo3720  Mo  0.685976  0.546423  0.482988
Te7434  Te  0.682188  0.539844  0.465975
Te7435  Te  0.693551  0.546423  0.500000
Mo3721  Mo  0.697339  0.539844  0.482988
Te7436  Te  0.693551  0.546423  0.465975
Te7437  Te  0.682188  0.553002  0.500000
Mo3722  Mo  0.685976  0.559581  0.482988
Te7438  Te  0.682188  0.553002  0.465975
Te7439  Te  0.693551  0.559581  0.500000
Mo3723  Mo  0.697339  0.553002  0.482988
Te7440  Te  0.693551  0.559581  0.465975
Te7441  Te  0.682188  0.566160  0.500000
Mo3724  Mo  0.685976  0.572739  0.482988
Te7442  Te  0.682188  0.566160  0.465975
Te7443  Te  0.693551  0.572739  0.500000
Mo3725  Mo  0.697339  0.566160  0.482988
Te7444  Te  0.693551  0.572739  0.465975
Te7445  Te  0.704915  0.526686  0.500000
Mo3726  Mo  0.708703  0.533265  0.482988
Te7446  Te  0.704915  0.526686  0.465975
Te7447  Te  0.716279  0.533265  0.500000
Mo3727  Mo  0.720067  0.526686  0.482988
Te7448  Te  0.716279  0.533265  0.465975
Te7449  Te  0.704915  0.539844  0.500000
Mo3728  Mo  0.708703  0.546423  0.482988
Te7450  Te  0.704915  0.539844  0.465975
Te7451  Te  0.716279  0.546423  0.500000
Mo3729  Mo  0.720067  0.539844  0.482988
Te7452  Te  0.716279  0.546423  0.465975
Te7453  Te  0.704915  0.553002  0.500000
Mo3730  Mo  0.708703  0.559581  0.482988
Te7454  Te  0.704915  0.553002  0.465975
Te7455  Te  0.716279  0.559581  0.500000
Mo3731  Mo  0.720067  0.553002  0.482988
Te7456  Te  0.716279  0.559581  0.465975
Te7457  Te  0.704915  0.566160  0.500000
Mo3732  Mo  0.708703  0.572739  0.482988
Te7458  Te  0.704915  0.566160  0.465975
Te7459  Te  0.716279  0.572739  0.500000
Mo3733  Mo  0.720067  0.566160  0.482988
Te7460  Te  0.716279  0.572739  0.465975
Te7461  Te  0.727642  0.526686  0.500000
Mo3734  Mo  0.731430  0.533265  0.482988
Te7462  Te  0.727642  0.526686  0.465975
Te7463  Te  0.739006  0.533265  0.500000
Mo3735  Mo  0.742794  0.526686  0.482988
Te7464  Te  0.739006  0.533265  0.465975
Te7465  Te  0.727642  0.539844  0.500000
Mo3736  Mo  0.731430  0.546423  0.482988
Te7466  Te  0.727642  0.539844  0.465975
Te7467  Te  0.739006  0.546423  0.500000
Mo3737  Mo  0.742794  0.539844  0.482988
Te7468  Te  0.739006  0.546423  0.465975
Te7469  Te  0.727642  0.553002  0.500000
Mo3738  Mo  0.731430  0.559581  0.482988
Te7470  Te  0.727642  0.553002  0.465975
Te7471  Te  0.739006  0.559581  0.500000
Mo3739  Mo  0.742794  0.553002  0.482988
Te7472  Te  0.739006  0.559581  0.465975
Te7473  Te  0.727642  0.566160  0.500000
Mo3740  Mo  0.731430  0.572739  0.482988
Te7474  Te  0.727642  0.566160  0.465975
Te7475  Te  0.739006  0.572739  0.500000
Mo3741  Mo  0.742794  0.566160  0.482988
Te7476  Te  0.739006  0.572739  0.465975
Te7477  Te  0.750370  0.526686  0.500000
Mo3742  Mo  0.754158  0.533265  0.482988
Te7478  Te  0.750370  0.526686  0.465975
Te7479  Te  0.761733  0.533265  0.500000
Mo3743  Mo  0.765521  0.526686  0.482988
Te7480  Te  0.761733  0.533265  0.465975
Te7481  Te  0.750370  0.539844  0.500000
Mo3744  Mo  0.754158  0.546423  0.482988
Te7482  Te  0.750370  0.539844  0.465975
Te7483  Te  0.761733  0.546423  0.500000
Mo3745  Mo  0.765521  0.539844  0.482988
Te7484  Te  0.761733  0.546423  0.465975
Te7485  Te  0.750370  0.553002  0.500000
Mo3746  Mo  0.754158  0.559581  0.482988
Te7486  Te  0.750370  0.553002  0.465975
Te7487  Te  0.761733  0.559581  0.500000
Mo3747  Mo  0.765521  0.553002  0.482988
Te7488  Te  0.761733  0.559581  0.465975
Te7489  Te  0.750370  0.566160  0.500000
Mo3748  Mo  0.754158  0.572739  0.482988
Te7490  Te  0.750370  0.566160  0.465975
Te7491  Te  0.761733  0.572739  0.500000
Mo3749  Mo  0.765521  0.566160  0.482988
Te7492  Te  0.761733  0.572739  0.465975
Te7493  Te  0.773097  0.526686  0.500000
Mo3750  Mo  0.776885  0.533265  0.482988
Te7494  Te  0.773097  0.526686  0.465975
Te7495  Te  0.784461  0.533265  0.500000
Mo3751  Mo  0.788248  0.526686  0.482988
Te7496  Te  0.784461  0.533265  0.465975
Te7497  Te  0.773097  0.539844  0.500000
Mo3752  Mo  0.776885  0.546423  0.482988
Te7498  Te  0.773097  0.539844  0.465975
Te7499  Te  0.784461  0.546423  0.500000
Mo3753  Mo  0.788248  0.539844  0.482988
Te7500  Te  0.784461  0.546423  0.465975
Te7501  Te  0.773097  0.553002  0.500000
Mo3754  Mo  0.776885  0.559581  0.482988
Te7502  Te  0.773097  0.553002  0.465975
Te7503  Te  0.784461  0.559581  0.500000
Mo3755  Mo  0.788248  0.553002  0.482988
Te7504  Te  0.784461  0.559581  0.465975
Te7505  Te  0.773097  0.566160  0.500000
Mo3756  Mo  0.776885  0.572739  0.482988
Te7506  Te  0.773097  0.566160  0.465975
Te7507  Te  0.784461  0.572739  0.500000
Mo3757  Mo  0.788248  0.566160  0.482988
Te7508  Te  0.784461  0.572739  0.465975
Te7509  Te  0.795824  0.526686  0.500000
Mo3758  Mo  0.799612  0.533265  0.482988
Te7510  Te  0.795824  0.526686  0.465975
Te7511  Te  0.807188  0.533265  0.500000
Mo3759  Mo  0.810976  0.526686  0.482988
Te7512  Te  0.807188  0.533265  0.465975
Te7513  Te  0.795824  0.539844  0.500000
Mo3760  Mo  0.799612  0.546423  0.482988
Te7514  Te  0.795824  0.539844  0.465975
Te7515  Te  0.807188  0.546423  0.500000
Mo3761  Mo  0.810976  0.539844  0.482988
Te7516  Te  0.807188  0.546423  0.465975
Te7517  Te  0.795824  0.553002  0.500000
Mo3762  Mo  0.799612  0.559581  0.482988
Te7518  Te  0.795824  0.553002  0.465975
Te7519  Te  0.807188  0.559581  0.500000
Mo3763  Mo  0.810976  0.553002  0.482988
Te7520  Te  0.807188  0.559581  0.465975
Te7521  Te  0.795824  0.566160  0.500000
Mo3764  Mo  0.799612  0.572739  0.482988
Te7522  Te  0.795824  0.566160  0.465975
Te7523  Te  0.807188  0.572739  0.500000
Mo3765  Mo  0.810976  0.566160  0.482988
Te7524  Te  0.807188  0.572739  0.465975
Te7525  Te  0.818551  0.526686  0.500000
Mo3766  Mo  0.822339  0.533265  0.482988
Te7526  Te  0.818551  0.526686  0.465975
Te7527  Te  0.829915  0.533265  0.500000
Mo3767  Mo  0.833703  0.526686  0.482988
Te7528  Te  0.829915  0.533265  0.465975
Te7529  Te  0.818551  0.539844  0.500000
Mo3768  Mo  0.822339  0.546423  0.482988
Te7530  Te  0.818551  0.539844  0.465975
Te7531  Te  0.829915  0.546423  0.500000
Mo3769  Mo  0.833703  0.539844  0.482988
Te7532  Te  0.829915  0.546423  0.465975
Te7533  Te  0.818551  0.553002  0.500000
Mo3770  Mo  0.822339  0.559581  0.482988
Te7534  Te  0.818551  0.553002  0.465975
Te7535  Te  0.829915  0.559581  0.500000
Mo3771  Mo  0.833703  0.553002  0.482988
Te7536  Te  0.829915  0.559581  0.465975
Te7537  Te  0.818551  0.566160  0.500000
Mo3772  Mo  0.822339  0.572739  0.482988
Te7538  Te  0.818551  0.566160  0.465975
Te7539  Te  0.829915  0.572739  0.500000
Mo3773  Mo  0.833703  0.566160  0.482988
Te7540  Te  0.829915  0.572739  0.465975
Te7541  Te  0.841279  0.526686  0.500000
Mo3774  Mo  0.845067  0.533265  0.482988
Te7542  Te  0.841279  0.526686  0.465975
Te7543  Te  0.852642  0.533265  0.500000
Mo3775  Mo  0.856430  0.526686  0.482988
Te7544  Te  0.852642  0.533265  0.465975
Te7545  Te  0.841279  0.539844  0.500000
Mo3776  Mo  0.845067  0.546423  0.482988
Te7546  Te  0.841279  0.539844  0.465975
Te7547  Te  0.852642  0.546423  0.500000
Mo3777  Mo  0.856430  0.539844  0.482988
Te7548  Te  0.852642  0.546423  0.465975
Te7549  Te  0.841279  0.553002  0.500000
Mo3778  Mo  0.845067  0.559581  0.482988
Te7550  Te  0.841279  0.553002  0.465975
Te7551  Te  0.852642  0.559581  0.500000
Mo3779  Mo  0.856430  0.553002  0.482988
Te7552  Te  0.852642  0.559581  0.465975
Te7553  Te  0.841279  0.566160  0.500000
Mo3780  Mo  0.845067  0.572739  0.482988
Te7554  Te  0.841279  0.566160  0.465975
Te7555  Te  0.852642  0.572739  0.500000
Mo3781  Mo  0.856430  0.566160  0.482988
Te7556  Te  0.852642  0.572739  0.465975
Te7557  Te  0.864006  0.526686  0.500000
Mo3782  Mo  0.867794  0.533265  0.482988
Te7558  Te  0.864006  0.526686  0.465975
Te7559  Te  0.875370  0.533265  0.500000
Mo3783  Mo  0.879158  0.526686  0.482988
Te7560  Te  0.875370  0.533265  0.465975
Te7561  Te  0.864006  0.539844  0.500000
Mo3784  Mo  0.867794  0.546423  0.482988
Te7562  Te  0.864006  0.539844  0.465975
Te7563  Te  0.875370  0.546423  0.500000
Mo3785  Mo  0.879158  0.539844  0.482988
Te7564  Te  0.875370  0.546423  0.465975
Te7565  Te  0.864006  0.553002  0.500000
Mo3786  Mo  0.867794  0.559581  0.482988
Te7566  Te  0.864006  0.553002  0.465975
Te7567  Te  0.875370  0.559581  0.500000
Mo3787  Mo  0.879158  0.553002  0.482988
Te7568  Te  0.875370  0.559581  0.465975
Te7569  Te  0.864006  0.566160  0.500000
Mo3788  Mo  0.867794  0.572739  0.482988
Te7570  Te  0.864006  0.566160  0.465975
Te7571  Te  0.875370  0.572739  0.500000
Mo3789  Mo  0.879158  0.566160  0.482988
Te7572  Te  0.875370  0.572739  0.465975
Te7573  Te  0.886733  0.526686  0.500000
Mo3790  Mo  0.890521  0.533265  0.482988
Te7574  Te  0.886733  0.526686  0.465975
Te7575  Te  0.898097  0.533265  0.500000
Mo3791  Mo  0.901885  0.526686  0.482988
Te7576  Te  0.898097  0.533265  0.465975
Te7577  Te  0.886733  0.539844  0.500000
Mo3792  Mo  0.890521  0.546423  0.482988
Te7578  Te  0.886733  0.539844  0.465975
Te7579  Te  0.898097  0.546423  0.500000
Mo3793  Mo  0.901885  0.539844  0.482988
Te7580  Te  0.898097  0.546423  0.465975
Te7581  Te  0.886733  0.553002  0.500000
Mo3794  Mo  0.890521  0.559581  0.482988
Te7582  Te  0.886733  0.553002  0.465975
Te7583  Te  0.898097  0.559581  0.500000
Mo3795  Mo  0.901885  0.553002  0.482988
Te7584  Te  0.898097  0.559581  0.465975
Te7585  Te  0.886733  0.566160  0.500000
Mo3796  Mo  0.890521  0.572739  0.482988
Te7586  Te  0.886733  0.566160  0.465975
Te7587  Te  0.898097  0.572739  0.500000
Mo3797  Mo  0.901885  0.566160  0.482988
Te7588  Te  0.898097  0.572739  0.465975
Te7589  Te  0.909461  0.526686  0.500000
Mo3798  Mo  0.913248  0.533265  0.482988
Te7590  Te  0.909461  0.526686  0.465975
Te7591  Te  0.920824  0.533265  0.500000
Mo3799  Mo  0.924612  0.526686  0.482988
Te7592  Te  0.920824  0.533265  0.465975
Te7593  Te  0.909461  0.539844  0.500000
Mo3800  Mo  0.913248  0.546423  0.482988
Te7594  Te  0.909461  0.539844  0.465975
Te7595  Te  0.920824  0.546423  0.500000
Mo3801  Mo  0.924612  0.539844  0.482988
Te7596  Te  0.920824  0.546423  0.465975
Te7597  Te  0.909461  0.553002  0.500000
Mo3802  Mo  0.913248  0.559581  0.482988
Te7598  Te  0.909461  0.553002  0.465975
Te7599  Te  0.920824  0.559581  0.500000
Mo3803  Mo  0.924612  0.553002  0.482988
Te7600  Te  0.920824  0.559581  0.465975
Te7601  Te  0.909461  0.566160  0.500000
Mo3804  Mo  0.913248  0.572739  0.482988
Te7602  Te  0.909461  0.566160  0.465975
Te7603  Te  0.920824  0.572739  0.500000
Mo3805  Mo  0.924612  0.566160  0.482988
Te7604  Te  0.920824  0.572739  0.465975
Te7605  Te  0.932188  0.526686  0.500000
Mo3806  Mo  0.935976  0.533265  0.482988
Te7606  Te  0.932188  0.526686  0.465975
Te7607  Te  0.943552  0.533265  0.500000
Mo3807  Mo  0.947339  0.526686  0.482988
Te7608  Te  0.943552  0.533265  0.465975
Te7609  Te  0.932188  0.539844  0.500000
Mo3808  Mo  0.935976  0.546423  0.482988
Te7610  Te  0.932188  0.539844  0.465975
Te7611  Te  0.943552  0.546423  0.500000
Mo3809  Mo  0.947339  0.539844  0.482988
Te7612  Te  0.943552  0.546423  0.465975
Te7613  Te  0.932188  0.553002  0.500000
Mo3810  Mo  0.935976  0.559581  0.482988
Te7614  Te  0.932188  0.553002  0.465975
Te7615  Te  0.943552  0.559581  0.500000
Mo3811  Mo  0.947339  0.553002  0.482988
Te7616  Te  0.943552  0.559581  0.465975
Te7617  Te  0.932188  0.566160  0.500000
Mo3812  Mo  0.935976  0.572739  0.482988
Te7618  Te  0.932188  0.566160  0.465975
Te7619  Te  0.943552  0.572739  0.500000
Mo3813  Mo  0.947339  0.566160  0.482988
Te7620  Te  0.943552  0.572739  0.465975
Te7621  Te  0.954915  0.526686  0.500000
Mo3814  Mo  0.958703  0.533265  0.482988
Te7622  Te  0.954915  0.526686  0.465975
Te7623  Te  0.966279  0.533265  0.500000
Mo3815  Mo  0.970067  0.526686  0.482988
Te7624  Te  0.966279  0.533265  0.465975
Te7625  Te  0.954915  0.539844  0.500000
Mo3816  Mo  0.958703  0.546423  0.482988
Te7626  Te  0.954915  0.539844  0.465975
Te7627  Te  0.966279  0.546423  0.500000
Mo3817  Mo  0.970067  0.539844  0.482988
Te7628  Te  0.966279  0.546423  0.465975
Te7629  Te  0.954915  0.553002  0.500000
Mo3818  Mo  0.958703  0.559581  0.482988
Te7630  Te  0.954915  0.553002  0.465975
Te7631  Te  0.966279  0.559581  0.500000
Mo3819  Mo  0.970067  0.553002  0.482988
Te7632  Te  0.966279  0.559581  0.465975
Te7633  Te  0.954915  0.566160  0.500000
Mo3820  Mo  0.958703  0.572739  0.482988
Te7634  Te  0.954915  0.566160  0.465975
Te7635  Te  0.966279  0.572739  0.500000
Mo3821  Mo  0.970067  0.566160  0.482988
Te7636  Te  0.966279  0.572739  0.465975
Te7637  Te  0.977642  0.526686  0.500000
Mo3822  Mo  0.981430  0.533265  0.482988
Te7638  Te  0.977642  0.526686  0.465975
Te7639  Te  0.989006  0.533265  0.500000
Mo3823  Mo  0.992794  0.526686  0.482988
Te7640  Te  0.989006  0.533265  0.465975
Te7641  Te  0.977642  0.539844  0.500000
Mo3824  Mo  0.981430  0.546423  0.482988
Te7642  Te  0.977642  0.539844  0.465975
Te7643  Te  0.989006  0.546423  0.500000
Mo3825  Mo  0.992794  0.539844  0.482988
Te7644  Te  0.989006  0.546423  0.465975
Te7645  Te  0.977642  0.553002  0.500000
Mo3826  Mo  0.981430  0.559581  0.482988
Te7646  Te  0.977642  0.553002  0.465975
Te7647  Te  0.989006  0.559581  0.500000
Mo3827  Mo  0.992794  0.553002  0.482988
Te7648  Te  0.989006  0.559581  0.465975
Te7649  Te  0.977642  0.566160  0.500000
Mo3828  Mo  0.981430  0.572739  0.482988
Te7650  Te  0.977642  0.566160  0.465975
Te7651  Te  0.989006  0.572739  0.500000
Mo3829  Mo  0.992794  0.566160  0.482988
Te7652  Te  0.989006  0.572739  0.465975
Te7653  Te  0.000370  0.579318  0.500000
Mo3830  Mo  0.004158  0.585897  0.482988
Te7654  Te  0.000370  0.579318  0.465975
Te7655  Te  0.011733  0.585897  0.500000
Mo3831  Mo  0.015521  0.579318  0.482988
Te7656  Te  0.011733  0.585897  0.465975
Te7657  Te  0.000370  0.592476  0.500000
Mo3832  Mo  0.004158  0.599055  0.482988
Te7658  Te  0.000370  0.592476  0.465975
Te7659  Te  0.011733  0.599055  0.500000
Mo3833  Mo  0.015521  0.592476  0.482988
Te7660  Te  0.011733  0.599055  0.465975
Te7661  Te  0.000370  0.605634  0.500000
Mo3834  Mo  0.004158  0.612213  0.482988
Te7662  Te  0.000370  0.605634  0.465975
Te7663  Te  0.011733  0.612213  0.500000
Mo3835  Mo  0.015521  0.605634  0.482988
Te7664  Te  0.011733  0.612213  0.465975
Te7665  Te  0.000370  0.618792  0.500000
Mo3836  Mo  0.004158  0.625371  0.482988
Te7666  Te  0.000370  0.618792  0.465975
Te7667  Te  0.011733  0.625371  0.500000
Mo3837  Mo  0.015521  0.618792  0.482988
Te7668  Te  0.011733  0.625371  0.465975
Te7669  Te  0.023097  0.579318  0.500000
Mo3838  Mo  0.026885  0.585897  0.482988
Te7670  Te  0.023097  0.579318  0.465975
Te7671  Te  0.034461  0.585897  0.500000
Mo3839  Mo  0.038249  0.579318  0.482988
Te7672  Te  0.034461  0.585897  0.465975
Te7673  Te  0.023097  0.592476  0.500000
Mo3840  Mo  0.026885  0.599055  0.482988
Te7674  Te  0.023097  0.592476  0.465975
Te7675  Te  0.034461  0.599055  0.500000
Mo3841  Mo  0.038249  0.592476  0.482988
Te7676  Te  0.034461  0.599055  0.465975
Te7677  Te  0.023097  0.605634  0.500000
Mo3842  Mo  0.026885  0.612213  0.482988
Te7678  Te  0.023097  0.605634  0.465975
Te7679  Te  0.034461  0.612213  0.500000
Mo3843  Mo  0.038249  0.605634  0.482988
Te7680  Te  0.034461  0.612213  0.465975
Te7681  Te  0.023097  0.618792  0.500000
Mo3844  Mo  0.026885  0.625371  0.482988
Te7682  Te  0.023097  0.618792  0.465975
Te7683  Te  0.034461  0.625371  0.500000
Mo3845  Mo  0.038249  0.618792  0.482988
Te7684  Te  0.034461  0.625371  0.465975
Te7685  Te  0.045824  0.579318  0.500000
Mo3846  Mo  0.049612  0.585897  0.482988
Te7686  Te  0.045824  0.579318  0.465975
Te7687  Te  0.057188  0.585897  0.500000
Mo3847  Mo  0.060976  0.579318  0.482988
Te7688  Te  0.057188  0.585897  0.465975
Te7689  Te  0.045824  0.592476  0.500000
Mo3848  Mo  0.049612  0.599055  0.482988
Te7690  Te  0.045824  0.592476  0.465975
Te7691  Te  0.057188  0.599055  0.500000
Mo3849  Mo  0.060976  0.592476  0.482988
Te7692  Te  0.057188  0.599055  0.465975
Te7693  Te  0.045824  0.605634  0.500000
Mo3850  Mo  0.049612  0.612213  0.482988
Te7694  Te  0.045824  0.605634  0.465975
Te7695  Te  0.057188  0.612213  0.500000
Mo3851  Mo  0.060976  0.605634  0.482988
Te7696  Te  0.057188  0.612213  0.465975
Te7697  Te  0.045824  0.618792  0.500000
Mo3852  Mo  0.049612  0.625371  0.482988
Te7698  Te  0.045824  0.618792  0.465975
Te7699  Te  0.057188  0.625371  0.500000
Mo3853  Mo  0.060976  0.618792  0.482988
Te7700  Te  0.057188  0.625371  0.465975
Te7701  Te  0.068552  0.579318  0.500000
Mo3854  Mo  0.072339  0.585897  0.482988
Te7702  Te  0.068552  0.579318  0.465975
Te7703  Te  0.079915  0.585897  0.500000
Mo3855  Mo  0.083703  0.579318  0.482988
Te7704  Te  0.079915  0.585897  0.465975
Te7705  Te  0.068552  0.592476  0.500000
Mo3856  Mo  0.072339  0.599055  0.482988
Te7706  Te  0.068552  0.592476  0.465975
Te7707  Te  0.079915  0.599055  0.500000
Mo3857  Mo  0.083703  0.592476  0.482988
Te7708  Te  0.079915  0.599055  0.465975
Te7709  Te  0.068552  0.605634  0.500000
Mo3858  Mo  0.072339  0.612213  0.482988
Te7710  Te  0.068552  0.605634  0.465975
Te7711  Te  0.079915  0.612213  0.500000
Mo3859  Mo  0.083703  0.605634  0.482988
Te7712  Te  0.079915  0.612213  0.465975
Te7713  Te  0.068552  0.618792  0.500000
Mo3860  Mo  0.072339  0.625371  0.482988
Te7714  Te  0.068552  0.618792  0.465975
Te7715  Te  0.079915  0.625371  0.500000
Mo3861  Mo  0.083703  0.618792  0.482988
Te7716  Te  0.079915  0.625371  0.465975
Te7717  Te  0.091279  0.579318  0.500000
Mo3862  Mo  0.095067  0.585897  0.482988
Te7718  Te  0.091279  0.579318  0.465975
Te7719  Te  0.102642  0.585897  0.500000
Mo3863  Mo  0.106430  0.579318  0.482988
Te7720  Te  0.102642  0.585897  0.465975
Te7721  Te  0.091279  0.592476  0.500000
Mo3864  Mo  0.095067  0.599055  0.482988
Te7722  Te  0.091279  0.592476  0.465975
Te7723  Te  0.102642  0.599055  0.500000
Mo3865  Mo  0.106430  0.592476  0.482988
Te7724  Te  0.102642  0.599055  0.465975
Te7725  Te  0.091279  0.605634  0.500000
Mo3866  Mo  0.095067  0.612213  0.482988
Te7726  Te  0.091279  0.605634  0.465975
Te7727  Te  0.102642  0.612213  0.500000
Mo3867  Mo  0.106430  0.605634  0.482988
Te7728  Te  0.102642  0.612213  0.465975
Te7729  Te  0.091279  0.618792  0.500000
Mo3868  Mo  0.095067  0.625371  0.482988
Te7730  Te  0.091279  0.618792  0.465975
Te7731  Te  0.102642  0.625371  0.500000
Mo3869  Mo  0.106430  0.618792  0.482988
Te7732  Te  0.102642  0.625371  0.465975
Te7733  Te  0.114006  0.579318  0.500000
Mo3870  Mo  0.117794  0.585897  0.482988
Te7734  Te  0.114006  0.579318  0.465975
Te7735  Te  0.125370  0.585897  0.500000
Mo3871  Mo  0.129158  0.579318  0.482988
Te7736  Te  0.125370  0.585897  0.465975
Te7737  Te  0.114006  0.592476  0.500000
Mo3872  Mo  0.117794  0.599055  0.482988
Te7738  Te  0.114006  0.592476  0.465975
Te7739  Te  0.125370  0.599055  0.500000
Mo3873  Mo  0.129158  0.592476  0.482988
Te7740  Te  0.125370  0.599055  0.465975
Te7741  Te  0.114006  0.605634  0.500000
Mo3874  Mo  0.117794  0.612213  0.482988
Te7742  Te  0.114006  0.605634  0.465975
Te7743  Te  0.125370  0.612213  0.500000
Mo3875  Mo  0.129158  0.605634  0.482988
Te7744  Te  0.125370  0.612213  0.465975
Te7745  Te  0.114006  0.618792  0.500000
Mo3876  Mo  0.117794  0.625371  0.482988
Te7746  Te  0.114006  0.618792  0.465975
Te7747  Te  0.125370  0.625371  0.500000
Mo3877  Mo  0.129158  0.618792  0.482988
Te7748  Te  0.125370  0.625371  0.465975
Te7749  Te  0.136733  0.579318  0.500000
Mo3878  Mo  0.140521  0.585897  0.482988
Te7750  Te  0.136733  0.579318  0.465975
Te7751  Te  0.148097  0.585897  0.500000
Mo3879  Mo  0.151885  0.579318  0.482988
Te7752  Te  0.148097  0.585897  0.465975
Te7753  Te  0.136733  0.592476  0.500000
Mo3880  Mo  0.140521  0.599055  0.482988
Te7754  Te  0.136733  0.592476  0.465975
Te7755  Te  0.148097  0.599055  0.500000
Mo3881  Mo  0.151885  0.592476  0.482988
Te7756  Te  0.148097  0.599055  0.465975
Te7757  Te  0.136733  0.605634  0.500000
Mo3882  Mo  0.140521  0.612213  0.482988
Te7758  Te  0.136733  0.605634  0.465975
Te7759  Te  0.148097  0.612213  0.500000
Mo3883  Mo  0.151885  0.605634  0.482988
Te7760  Te  0.148097  0.612213  0.465975
Te7761  Te  0.136733  0.618792  0.500000
Mo3884  Mo  0.140521  0.625371  0.482988
Te7762  Te  0.136733  0.618792  0.465975
Te7763  Te  0.148097  0.625371  0.500000
Mo3885  Mo  0.151885  0.618792  0.482988
Te7764  Te  0.148097  0.625371  0.465975
Te7765  Te  0.159461  0.579318  0.500000
Mo3886  Mo  0.163248  0.585897  0.482988
Te7766  Te  0.159461  0.579318  0.465975
Te7767  Te  0.170824  0.585897  0.500000
Mo3887  Mo  0.174612  0.579318  0.482988
Te7768  Te  0.170824  0.585897  0.465975
Te7769  Te  0.159461  0.592476  0.500000
Mo3888  Mo  0.163248  0.599055  0.482988
Te7770  Te  0.159461  0.592476  0.465975
Te7771  Te  0.170824  0.599055  0.500000
Mo3889  Mo  0.174612  0.592476  0.482988
Te7772  Te  0.170824  0.599055  0.465975
Te7773  Te  0.159461  0.605634  0.500000
Mo3890  Mo  0.163248  0.612213  0.482988
Te7774  Te  0.159461  0.605634  0.465975
Te7775  Te  0.170824  0.612213  0.500000
Mo3891  Mo  0.174612  0.605634  0.482988
Te7776  Te  0.170824  0.612213  0.465975
Te7777  Te  0.159461  0.618792  0.500000
Mo3892  Mo  0.163248  0.625371  0.482988
Te7778  Te  0.159461  0.618792  0.465975
Te7779  Te  0.170824  0.625371  0.500000
Mo3893  Mo  0.174612  0.618792  0.482988
Te7780  Te  0.170824  0.625371  0.465975
Te7781  Te  0.182188  0.579318  0.500000
Mo3894  Mo  0.185976  0.585897  0.482988
Te7782  Te  0.182188  0.579318  0.465975
Te7783  Te  0.193551  0.585897  0.500000
Mo3895  Mo  0.197339  0.579318  0.482988
Te7784  Te  0.193551  0.585897  0.465975
Te7785  Te  0.182188  0.592476  0.500000
Mo3896  Mo  0.185976  0.599055  0.482988
Te7786  Te  0.182188  0.592476  0.465975
Te7787  Te  0.193551  0.599055  0.500000
Mo3897  Mo  0.197339  0.592476  0.482988
Te7788  Te  0.193551  0.599055  0.465975
Te7789  Te  0.182188  0.605634  0.500000
Mo3898  Mo  0.185976  0.612213  0.482988
Te7790  Te  0.182188  0.605634  0.465975
Te7791  Te  0.193551  0.612213  0.500000
Mo3899  Mo  0.197339  0.605634  0.482988
Te7792  Te  0.193551  0.612213  0.465975
Te7793  Te  0.182188  0.618792  0.500000
Mo3900  Mo  0.185976  0.625371  0.482988
Te7794  Te  0.182188  0.618792  0.465975
Te7795  Te  0.193551  0.625371  0.500000
Mo3901  Mo  0.197339  0.618792  0.482988
Te7796  Te  0.193551  0.625371  0.465975
Te7797  Te  0.204915  0.579318  0.500000
Mo3902  Mo  0.208703  0.585897  0.482988
Te7798  Te  0.204915  0.579318  0.465975
Te7799  Te  0.216279  0.585897  0.500000
Mo3903  Mo  0.220067  0.579318  0.482988
Te7800  Te  0.216279  0.585897  0.465975
Te7801  Te  0.204915  0.592476  0.500000
Mo3904  Mo  0.208703  0.599055  0.482988
Te7802  Te  0.204915  0.592476  0.465975
Te7803  Te  0.216279  0.599055  0.500000
Mo3905  Mo  0.220067  0.592476  0.482988
Te7804  Te  0.216279  0.599055  0.465975
Te7805  Te  0.204915  0.605634  0.500000
Mo3906  Mo  0.208703  0.612213  0.482988
Te7806  Te  0.204915  0.605634  0.465975
Te7807  Te  0.216279  0.612213  0.500000
Mo3907  Mo  0.220067  0.605634  0.482988
Te7808  Te  0.216279  0.612213  0.465975
Te7809  Te  0.204915  0.618792  0.500000
Mo3908  Mo  0.208703  0.625371  0.482988
Te7810  Te  0.204915  0.618792  0.465975
Te7811  Te  0.216279  0.625371  0.500000
Mo3909  Mo  0.220067  0.618792  0.482988
Te7812  Te  0.216279  0.625371  0.465975
Te7813  Te  0.227642  0.579318  0.500000
Mo3910  Mo  0.231430  0.585897  0.482988
Te7814  Te  0.227642  0.579318  0.465975
Te7815  Te  0.239006  0.585897  0.500000
Mo3911  Mo  0.242794  0.579318  0.482988
Te7816  Te  0.239006  0.585897  0.465975
Te7817  Te  0.227642  0.592476  0.500000
Mo3912  Mo  0.231430  0.599055  0.482988
Te7818  Te  0.227642  0.592476  0.465975
Te7819  Te  0.239006  0.599055  0.500000
Mo3913  Mo  0.242794  0.592476  0.482988
Te7820  Te  0.239006  0.599055  0.465975
Te7821  Te  0.227642  0.605634  0.500000
Mo3914  Mo  0.231430  0.612213  0.482988
Te7822  Te  0.227642  0.605634  0.465975
Te7823  Te  0.239006  0.612213  0.500000
Mo3915  Mo  0.242794  0.605634  0.482988
Te7824  Te  0.239006  0.612213  0.465975
Te7825  Te  0.227642  0.618792  0.500000
Mo3916  Mo  0.231430  0.625371  0.482988
Te7826  Te  0.227642  0.618792  0.465975
Te7827  Te  0.239006  0.625371  0.500000
Mo3917  Mo  0.242794  0.618792  0.482988
Te7828  Te  0.239006  0.625371  0.465975
Te7829  Te  0.250370  0.579318  0.500000
Mo3918  Mo  0.254158  0.585897  0.482988
Te7830  Te  0.250370  0.579318  0.465975
Te7831  Te  0.261733  0.585897  0.500000
Mo3919  Mo  0.265521  0.579318  0.482988
Te7832  Te  0.261733  0.585897  0.465975
Te7833  Te  0.250370  0.592476  0.500000
Mo3920  Mo  0.254158  0.599055  0.482988
Te7834  Te  0.250370  0.592476  0.465975
Te7835  Te  0.261733  0.599055  0.500000
Mo3921  Mo  0.265521  0.592476  0.482988
Te7836  Te  0.261733  0.599055  0.465975
Te7837  Te  0.250370  0.605634  0.500000
Mo3922  Mo  0.254158  0.612213  0.482988
Te7838  Te  0.250370  0.605634  0.465975
Te7839  Te  0.261733  0.612213  0.500000
Mo3923  Mo  0.265521  0.605634  0.482988
Te7840  Te  0.261733  0.612213  0.465975
Te7841  Te  0.250370  0.618792  0.500000
Mo3924  Mo  0.254158  0.625371  0.482988
Te7842  Te  0.250370  0.618792  0.465975
Te7843  Te  0.261733  0.625371  0.500000
Mo3925  Mo  0.265521  0.618792  0.482988
Te7844  Te  0.261733  0.625371  0.465975
Te7845  Te  0.273097  0.579318  0.500000
Mo3926  Mo  0.276885  0.585897  0.482988
Te7846  Te  0.273097  0.579318  0.465975
Te7847  Te  0.284461  0.585897  0.500000
Mo3927  Mo  0.288248  0.579318  0.482988
Te7848  Te  0.284461  0.585897  0.465975
Te7849  Te  0.273097  0.592476  0.500000
Mo3928  Mo  0.276885  0.599055  0.482988
Te7850  Te  0.273097  0.592476  0.465975
Te7851  Te  0.284461  0.599055  0.500000
Mo3929  Mo  0.288248  0.592476  0.482988
Te7852  Te  0.284461  0.599055  0.465975
Te7853  Te  0.273097  0.605634  0.500000
Mo3930  Mo  0.276885  0.612213  0.482988
Te7854  Te  0.273097  0.605634  0.465975
Te7855  Te  0.284461  0.612213  0.500000
Mo3931  Mo  0.288248  0.605634  0.482988
Te7856  Te  0.284461  0.612213  0.465975
Te7857  Te  0.273097  0.618792  0.500000
Mo3932  Mo  0.276885  0.625371  0.482988
Te7858  Te  0.273097  0.618792  0.465975
Te7859  Te  0.284461  0.625371  0.500000
Mo3933  Mo  0.288248  0.618792  0.482988
Te7860  Te  0.284461  0.625371  0.465975
Te7861  Te  0.295824  0.579318  0.500000
Mo3934  Mo  0.299612  0.585897  0.482988
Te7862  Te  0.295824  0.579318  0.465975
Te7863  Te  0.307188  0.585897  0.500000
Mo3935  Mo  0.310976  0.579318  0.482988
Te7864  Te  0.307188  0.585897  0.465975
Te7865  Te  0.295824  0.592476  0.500000
Mo3936  Mo  0.299612  0.599055  0.482988
Te7866  Te  0.295824  0.592476  0.465975
Te7867  Te  0.307188  0.599055  0.500000
Mo3937  Mo  0.310976  0.592476  0.482988
Te7868  Te  0.307188  0.599055  0.465975
Te7869  Te  0.295824  0.605634  0.500000
Mo3938  Mo  0.299612  0.612213  0.482988
Te7870  Te  0.295824  0.605634  0.465975
Te7871  Te  0.307188  0.612213  0.500000
Mo3939  Mo  0.310976  0.605634  0.482988
Te7872  Te  0.307188  0.612213  0.465975
Te7873  Te  0.295824  0.618792  0.500000
Mo3940  Mo  0.299612  0.625371  0.482988
Te7874  Te  0.295824  0.618792  0.465975
Te7875  Te  0.307188  0.625371  0.500000
Mo3941  Mo  0.310976  0.618792  0.482988
Te7876  Te  0.307188  0.625371  0.465975
Te7877  Te  0.318551  0.579318  0.500000
Mo3942  Mo  0.322339  0.585897  0.482988
Te7878  Te  0.318551  0.579318  0.465975
Te7879  Te  0.329915  0.585897  0.500000
Mo3943  Mo  0.333703  0.579318  0.482988
Te7880  Te  0.329915  0.585897  0.465975
Te7881  Te  0.318551  0.592476  0.500000
Mo3944  Mo  0.322339  0.599055  0.482988
Te7882  Te  0.318551  0.592476  0.465975
Te7883  Te  0.329915  0.599055  0.500000
Mo3945  Mo  0.333703  0.592476  0.482988
Te7884  Te  0.329915  0.599055  0.465975
Te7885  Te  0.318551  0.605634  0.500000
Mo3946  Mo  0.322339  0.612213  0.482988
Te7886  Te  0.318551  0.605634  0.465975
Te7887  Te  0.329915  0.612213  0.500000
Mo3947  Mo  0.333703  0.605634  0.482988
Te7888  Te  0.329915  0.612213  0.465975
Te7889  Te  0.318551  0.618792  0.500000
Mo3948  Mo  0.322339  0.625371  0.482988
Te7890  Te  0.318551  0.618792  0.465975
Te7891  Te  0.329915  0.625371  0.500000
Mo3949  Mo  0.333703  0.618792  0.482988
Te7892  Te  0.329915  0.625371  0.465975
Te7893  Te  0.341279  0.579318  0.500000
Mo3950  Mo  0.345067  0.585897  0.482988
Te7894  Te  0.341279  0.579318  0.465975
Te7895  Te  0.352642  0.585897  0.500000
Mo3951  Mo  0.356430  0.579318  0.482988
Te7896  Te  0.352642  0.585897  0.465975
Te7897  Te  0.341279  0.592476  0.500000
Mo3952  Mo  0.345067  0.599055  0.482988
Te7898  Te  0.341279  0.592476  0.465975
Te7899  Te  0.352642  0.599055  0.500000
Mo3953  Mo  0.356430  0.592476  0.482988
Te7900  Te  0.352642  0.599055  0.465975
Te7901  Te  0.341279  0.605634  0.500000
Mo3954  Mo  0.345067  0.612213  0.482988
Te7902  Te  0.341279  0.605634  0.465975
Te7903  Te  0.352642  0.612213  0.500000
Mo3955  Mo  0.356430  0.605634  0.482988
Te7904  Te  0.352642  0.612213  0.465975
Te7905  Te  0.341279  0.618792  0.500000
Mo3956  Mo  0.345067  0.625371  0.482988
Te7906  Te  0.341279  0.618792  0.465975
Te7907  Te  0.352642  0.625371  0.500000
Mo3957  Mo  0.356430  0.618792  0.482988
Te7908  Te  0.352642  0.625371  0.465975
Te7909  Te  0.364006  0.579318  0.500000
Mo3958  Mo  0.367794  0.585897  0.482988
Te7910  Te  0.364006  0.579318  0.465975
Te7911  Te  0.375370  0.585897  0.500000
Mo3959  Mo  0.379158  0.579318  0.482988
Te7912  Te  0.375370  0.585897  0.465975
Te7913  Te  0.364006  0.592476  0.500000
Mo3960  Mo  0.367794  0.599055  0.482988
Te7914  Te  0.364006  0.592476  0.465975
Te7915  Te  0.375370  0.599055  0.500000
Mo3961  Mo  0.379158  0.592476  0.482988
Te7916  Te  0.375370  0.599055  0.465975
Te7917  Te  0.364006  0.605634  0.500000
Mo3962  Mo  0.367794  0.612213  0.482988
Te7918  Te  0.364006  0.605634  0.465975
Te7919  Te  0.375370  0.612213  0.500000
Mo3963  Mo  0.379158  0.605634  0.482988
Te7920  Te  0.375370  0.612213  0.465975
Te7921  Te  0.364006  0.618792  0.500000
Mo3964  Mo  0.367794  0.625371  0.482988
Te7922  Te  0.364006  0.618792  0.465975
Te7923  Te  0.375370  0.625371  0.500000
Mo3965  Mo  0.379158  0.618792  0.482988
Te7924  Te  0.375370  0.625371  0.465975
Te7925  Te  0.386733  0.579318  0.500000
Mo3966  Mo  0.390521  0.585897  0.482988
Te7926  Te  0.386733  0.579318  0.465975
Te7927  Te  0.398097  0.585897  0.500000
Mo3967  Mo  0.401885  0.579318  0.482988
Te7928  Te  0.398097  0.585897  0.465975
Te7929  Te  0.386733  0.592476  0.500000
Mo3968  Mo  0.390521  0.599055  0.482988
Te7930  Te  0.386733  0.592476  0.465975
Te7931  Te  0.398097  0.599055  0.500000
Mo3969  Mo  0.401885  0.592476  0.482988
Te7932  Te  0.398097  0.599055  0.465975
Te7933  Te  0.386733  0.605634  0.500000
Mo3970  Mo  0.390521  0.612213  0.482988
Te7934  Te  0.386733  0.605634  0.465975
Te7935  Te  0.398097  0.612213  0.500000
Mo3971  Mo  0.401885  0.605634  0.482988
Te7936  Te  0.398097  0.612213  0.465975
Te7937  Te  0.386733  0.618792  0.500000
Mo3972  Mo  0.390521  0.625371  0.482988
Te7938  Te  0.386733  0.618792  0.465975
Te7939  Te  0.398097  0.625371  0.500000
Mo3973  Mo  0.401885  0.618792  0.482988
Te7940  Te  0.398097  0.625371  0.465975
Te7941  Te  0.409461  0.579318  0.500000
Mo3974  Mo  0.413248  0.585897  0.482988
Te7942  Te  0.409461  0.579318  0.465975
Te7943  Te  0.420824  0.585897  0.500000
Mo3975  Mo  0.424612  0.579318  0.482988
Te7944  Te  0.420824  0.585897  0.465975
Te7945  Te  0.409461  0.592476  0.500000
Mo3976  Mo  0.413248  0.599055  0.482988
Te7946  Te  0.409461  0.592476  0.465975
Te7947  Te  0.420824  0.599055  0.500000
Mo3977  Mo  0.424612  0.592476  0.482988
Te7948  Te  0.420824  0.599055  0.465975
Te7949  Te  0.409461  0.605634  0.500000
Mo3978  Mo  0.413248  0.612213  0.482988
Te7950  Te  0.409461  0.605634  0.465975
Te7951  Te  0.420824  0.612213  0.500000
Mo3979  Mo  0.424612  0.605634  0.482988
Te7952  Te  0.420824  0.612213  0.465975
Te7953  Te  0.409461  0.618792  0.500000
Mo3980  Mo  0.413248  0.625371  0.482988
Te7954  Te  0.409461  0.618792  0.465975
Te7955  Te  0.420824  0.625371  0.500000
Mo3981  Mo  0.424612  0.618792  0.482988
Te7956  Te  0.420824  0.625371  0.465975
Te7957  Te  0.432188  0.579318  0.500000
Mo3982  Mo  0.435976  0.585897  0.482988
Te7958  Te  0.432188  0.579318  0.465975
Te7959  Te  0.443552  0.585897  0.500000
Mo3983  Mo  0.447339  0.579318  0.482988
Te7960  Te  0.443552  0.585897  0.465975
Te7961  Te  0.432188  0.592476  0.500000
Mo3984  Mo  0.435976  0.599055  0.482988
Te7962  Te  0.432188  0.592476  0.465975
Te7963  Te  0.443552  0.599055  0.500000
Mo3985  Mo  0.447339  0.592476  0.482988
Te7964  Te  0.443552  0.599055  0.465975
Te7965  Te  0.432188  0.605634  0.500000
Mo3986  Mo  0.435976  0.612213  0.482988
Te7966  Te  0.432188  0.605634  0.465975
Te7967  Te  0.443552  0.612213  0.500000
Mo3987  Mo  0.447339  0.605634  0.482988
Te7968  Te  0.443552  0.612213  0.465975
Te7969  Te  0.432188  0.618792  0.500000
Mo3988  Mo  0.435976  0.625371  0.482988
Te7970  Te  0.432188  0.618792  0.465975
Te7971  Te  0.443552  0.625371  0.500000
Mo3989  Mo  0.447339  0.618792  0.482988
Te7972  Te  0.443552  0.625371  0.465975
Te7973  Te  0.454915  0.579318  0.500000
Mo3990  Mo  0.458703  0.585897  0.482988
Te7974  Te  0.454915  0.579318  0.465975
Te7975  Te  0.466279  0.585897  0.500000
Mo3991  Mo  0.470067  0.579318  0.482988
Te7976  Te  0.466279  0.585897  0.465975
Te7977  Te  0.454915  0.592476  0.500000
Mo3992  Mo  0.458703  0.599055  0.482988
Te7978  Te  0.454915  0.592476  0.465975
Te7979  Te  0.466279  0.599055  0.500000
Mo3993  Mo  0.470067  0.592476  0.482988
Te7980  Te  0.466279  0.599055  0.465975
Te7981  Te  0.454915  0.605634  0.500000
Mo3994  Mo  0.458703  0.612213  0.482988
Te7982  Te  0.454915  0.605634  0.465975
Te7983  Te  0.466279  0.612213  0.500000
Mo3995  Mo  0.470067  0.605634  0.482988
Te7984  Te  0.466279  0.612213  0.465975
Te7985  Te  0.454915  0.618792  0.500000
Mo3996  Mo  0.458703  0.625371  0.482988
Te7986  Te  0.454915  0.618792  0.465975
Te7987  Te  0.466279  0.625371  0.500000
Mo3997  Mo  0.470067  0.618792  0.482988
Te7988  Te  0.466279  0.625371  0.465975
Te7989  Te  0.477642  0.579318  0.500000
Mo3998  Mo  0.481430  0.585897  0.482988
Te7990  Te  0.477642  0.579318  0.465975
Te7991  Te  0.489006  0.585897  0.500000
Mo3999  Mo  0.492794  0.579318  0.482988
Te7992  Te  0.489006  0.585897  0.465975
Te7993  Te  0.477642  0.592476  0.500000
Mo4000  Mo  0.481430  0.599055  0.482988
Te7994  Te  0.477642  0.592476  0.465975
Te7995  Te  0.489006  0.599055  0.500000
Mo4001  Mo  0.492794  0.592476  0.482988
Te7996  Te  0.489006  0.599055  0.465975
Te7997  Te  0.477642  0.605634  0.500000
Mo4002  Mo  0.481430  0.612213  0.482988
Te7998  Te  0.477642  0.605634  0.465975
Te7999  Te  0.489006  0.612213  0.500000
Mo4003  Mo  0.492794  0.605634  0.482988
Te8000  Te  0.489006  0.612213  0.465975
Te8001  Te  0.477642  0.618792  0.500000
Mo4004  Mo  0.481430  0.625371  0.482988
Te8002  Te  0.477642  0.618792  0.465975
Te8003  Te  0.489006  0.625371  0.500000
Mo4005  Mo  0.492794  0.618792  0.482988
Te8004  Te  0.489006  0.625371  0.465975
Te8005  Te  0.500370  0.579318  0.500000
Mo4006  Mo  0.504158  0.585897  0.482988
Te8006  Te  0.500370  0.579318  0.465975
Te8007  Te  0.511733  0.585897  0.500000
Mo4007  Mo  0.515521  0.579318  0.482988
Te8008  Te  0.511733  0.585897  0.465975
Te8009  Te  0.500370  0.592476  0.500000
Mo4008  Mo  0.504158  0.599055  0.482988
Te8010  Te  0.500370  0.592476  0.465975
Te8011  Te  0.511733  0.599055  0.500000
Mo4009  Mo  0.515521  0.592476  0.482988
Te8012  Te  0.511733  0.599055  0.465975
Te8013  Te  0.500370  0.605634  0.500000
Mo4010  Mo  0.504158  0.612213  0.482988
Te8014  Te  0.500370  0.605634  0.465975
Te8015  Te  0.511733  0.612213  0.500000
Mo4011  Mo  0.515521  0.605634  0.482988
Te8016  Te  0.511733  0.612213  0.465975
Te8017  Te  0.500370  0.618792  0.500000
Mo4012  Mo  0.504158  0.625371  0.482988
Te8018  Te  0.500370  0.618792  0.465975
Te8019  Te  0.511733  0.625371  0.500000
Mo4013  Mo  0.515521  0.618792  0.482988
Te8020  Te  0.511733  0.625371  0.465975
Te8021  Te  0.523097  0.579318  0.500000
Mo4014  Mo  0.526885  0.585897  0.482988
Te8022  Te  0.523097  0.579318  0.465975
Te8023  Te  0.534461  0.585897  0.500000
Mo4015  Mo  0.538249  0.579318  0.482988
Te8024  Te  0.534461  0.585897  0.465975
Te8025  Te  0.523097  0.592476  0.500000
Mo4016  Mo  0.526885  0.599055  0.482988
Te8026  Te  0.523097  0.592476  0.465975
Te8027  Te  0.534461  0.599055  0.500000
Mo4017  Mo  0.538249  0.592476  0.482988
Te8028  Te  0.534461  0.599055  0.465975
Te8029  Te  0.523097  0.605634  0.500000
Mo4018  Mo  0.526885  0.612213  0.482988
Te8030  Te  0.523097  0.605634  0.465975
Te8031  Te  0.534461  0.612213  0.500000
Mo4019  Mo  0.538249  0.605634  0.482988
Te8032  Te  0.534461  0.612213  0.465975
Te8033  Te  0.523097  0.618792  0.500000
Mo4020  Mo  0.526885  0.625371  0.482988
Te8034  Te  0.523097  0.618792  0.465975
Te8035  Te  0.534461  0.625371  0.500000
Mo4021  Mo  0.538249  0.618792  0.482988
Te8036  Te  0.534461  0.625371  0.465975
Te8037  Te  0.545824  0.579318  0.500000
Mo4022  Mo  0.549612  0.585897  0.482988
Te8038  Te  0.545824  0.579318  0.465975
Te8039  Te  0.557188  0.585897  0.500000
Mo4023  Mo  0.560976  0.579318  0.482988
Te8040  Te  0.557188  0.585897  0.465975
Te8041  Te  0.545824  0.592476  0.500000
Mo4024  Mo  0.549612  0.599055  0.482988
Te8042  Te  0.545824  0.592476  0.465975
Te8043  Te  0.557188  0.599055  0.500000
Mo4025  Mo  0.560976  0.592476  0.482988
Te8044  Te  0.557188  0.599055  0.465975
Te8045  Te  0.545824  0.605634  0.500000
Mo4026  Mo  0.549612  0.612213  0.482988
Te8046  Te  0.545824  0.605634  0.465975
Te8047  Te  0.557188  0.612213  0.500000
Mo4027  Mo  0.560976  0.605634  0.482988
Te8048  Te  0.557188  0.612213  0.465975
Te8049  Te  0.545824  0.618792  0.500000
Mo4028  Mo  0.549612  0.625371  0.482988
Te8050  Te  0.545824  0.618792  0.465975
Te8051  Te  0.557188  0.625371  0.500000
Mo4029  Mo  0.560976  0.618792  0.482988
Te8052  Te  0.557188  0.625371  0.465975
Te8053  Te  0.568552  0.579318  0.500000
Mo4030  Mo  0.572339  0.585897  0.482988
Te8054  Te  0.568552  0.579318  0.465975
Te8055  Te  0.579915  0.585897  0.500000
Mo4031  Mo  0.583703  0.579318  0.482988
Te8056  Te  0.579915  0.585897  0.465975
Te8057  Te  0.568552  0.592476  0.500000
Mo4032  Mo  0.572339  0.599055  0.482988
Te8058  Te  0.568552  0.592476  0.465975
Te8059  Te  0.579915  0.599055  0.500000
Mo4033  Mo  0.583703  0.592476  0.482988
Te8060  Te  0.579915  0.599055  0.465975
Te8061  Te  0.568552  0.605634  0.500000
Mo4034  Mo  0.572339  0.612213  0.482988
Te8062  Te  0.568552  0.605634  0.465975
Te8063  Te  0.579915  0.612213  0.500000
Mo4035  Mo  0.583703  0.605634  0.482988
Te8064  Te  0.579915  0.612213  0.465975
Te8065  Te  0.568552  0.618792  0.500000
Mo4036  Mo  0.572339  0.625371  0.482988
Te8066  Te  0.568552  0.618792  0.465975
Te8067  Te  0.579915  0.625371  0.500000
Mo4037  Mo  0.583703  0.618792  0.482988
Te8068  Te  0.579915  0.625371  0.465975
Te8069  Te  0.591279  0.579318  0.500000
Mo4038  Mo  0.595067  0.585897  0.482988
Te8070  Te  0.591279  0.579318  0.465975
Te8071  Te  0.602642  0.585897  0.500000
Mo4039  Mo  0.606430  0.579318  0.482988
Te8072  Te  0.602642  0.585897  0.465975
Te8073  Te  0.591279  0.592476  0.500000
Mo4040  Mo  0.595067  0.599055  0.482988
Te8074  Te  0.591279  0.592476  0.465975
Te8075  Te  0.602642  0.599055  0.500000
Mo4041  Mo  0.606430  0.592476  0.482988
Te8076  Te  0.602642  0.599055  0.465975
Te8077  Te  0.591279  0.605634  0.500000
Mo4042  Mo  0.595067  0.612213  0.482988
Te8078  Te  0.591279  0.605634  0.465975
Te8079  Te  0.602642  0.612213  0.500000
Mo4043  Mo  0.606430  0.605634  0.482988
Te8080  Te  0.602642  0.612213  0.465975
Te8081  Te  0.591279  0.618792  0.500000
Mo4044  Mo  0.595067  0.625371  0.482988
Te8082  Te  0.591279  0.618792  0.465975
Te8083  Te  0.602642  0.625371  0.500000
Mo4045  Mo  0.606430  0.618792  0.482988
Te8084  Te  0.602642  0.625371  0.465975
Te8085  Te  0.614006  0.579318  0.500000
Mo4046  Mo  0.617794  0.585897  0.482988
Te8086  Te  0.614006  0.579318  0.465975
Te8087  Te  0.625370  0.585897  0.500000
Mo4047  Mo  0.629158  0.579318  0.482988
Te8088  Te  0.625370  0.585897  0.465975
Te8089  Te  0.614006  0.592476  0.500000
Mo4048  Mo  0.617794  0.599055  0.482988
Te8090  Te  0.614006  0.592476  0.465975
Te8091  Te  0.625370  0.599055  0.500000
Mo4049  Mo  0.629158  0.592476  0.482988
Te8092  Te  0.625370  0.599055  0.465975
Te8093  Te  0.614006  0.605634  0.500000
Mo4050  Mo  0.617794  0.612213  0.482988
Te8094  Te  0.614006  0.605634  0.465975
Te8095  Te  0.625370  0.612213  0.500000
Mo4051  Mo  0.629158  0.605634  0.482988
Te8096  Te  0.625370  0.612213  0.465975
Te8097  Te  0.614006  0.618792  0.500000
Mo4052  Mo  0.617794  0.625371  0.482988
Te8098  Te  0.614006  0.618792  0.465975
Te8099  Te  0.625370  0.625371  0.500000
Mo4053  Mo  0.629158  0.618792  0.482988
Te8100  Te  0.625370  0.625371  0.465975
Te8101  Te  0.636733  0.579318  0.500000
Mo4054  Mo  0.640521  0.585897  0.482988
Te8102  Te  0.636733  0.579318  0.465975
Te8103  Te  0.648097  0.585897  0.500000
Mo4055  Mo  0.651885  0.579318  0.482988
Te8104  Te  0.648097  0.585897  0.465975
Te8105  Te  0.636733  0.592476  0.500000
Mo4056  Mo  0.640521  0.599055  0.482988
Te8106  Te  0.636733  0.592476  0.465975
Te8107  Te  0.648097  0.599055  0.500000
Mo4057  Mo  0.651885  0.592476  0.482988
Te8108  Te  0.648097  0.599055  0.465975
Te8109  Te  0.636733  0.605634  0.500000
Mo4058  Mo  0.640521  0.612213  0.482988
Te8110  Te  0.636733  0.605634  0.465975
Te8111  Te  0.648097  0.612213  0.500000
Mo4059  Mo  0.651885  0.605634  0.482988
Te8112  Te  0.648097  0.612213  0.465975
Te8113  Te  0.636733  0.618792  0.500000
Mo4060  Mo  0.640521  0.625371  0.482988
Te8114  Te  0.636733  0.618792  0.465975
Te8115  Te  0.648097  0.625371  0.500000
Mo4061  Mo  0.651885  0.618792  0.482988
Te8116  Te  0.648097  0.625371  0.465975
Te8117  Te  0.659461  0.579318  0.500000
Mo4062  Mo  0.663248  0.585897  0.482988
Te8118  Te  0.659461  0.579318  0.465975
Te8119  Te  0.670824  0.585897  0.500000
Mo4063  Mo  0.674612  0.579318  0.482988
Te8120  Te  0.670824  0.585897  0.465975
Te8121  Te  0.659461  0.592476  0.500000
Mo4064  Mo  0.663248  0.599055  0.482988
Te8122  Te  0.659461  0.592476  0.465975
Te8123  Te  0.670824  0.599055  0.500000
Mo4065  Mo  0.674612  0.592476  0.482988
Te8124  Te  0.670824  0.599055  0.465975
Te8125  Te  0.659461  0.605634  0.500000
Mo4066  Mo  0.663248  0.612213  0.482988
Te8126  Te  0.659461  0.605634  0.465975
Te8127  Te  0.670824  0.612213  0.500000
Mo4067  Mo  0.674612  0.605634  0.482988
Te8128  Te  0.670824  0.612213  0.465975
Te8129  Te  0.659461  0.618792  0.500000
Mo4068  Mo  0.663248  0.625371  0.482988
Te8130  Te  0.659461  0.618792  0.465975
Te8131  Te  0.670824  0.625371  0.500000
Mo4069  Mo  0.674612  0.618792  0.482988
Te8132  Te  0.670824  0.625371  0.465975
Te8133  Te  0.682188  0.579318  0.500000
Mo4070  Mo  0.685976  0.585897  0.482988
Te8134  Te  0.682188  0.579318  0.465975
Te8135  Te  0.693551  0.585897  0.500000
Mo4071  Mo  0.697339  0.579318  0.482988
Te8136  Te  0.693551  0.585897  0.465975
Te8137  Te  0.682188  0.592476  0.500000
Mo4072  Mo  0.685976  0.599055  0.482988
Te8138  Te  0.682188  0.592476  0.465975
Te8139  Te  0.693551  0.599055  0.500000
Mo4073  Mo  0.697339  0.592476  0.482988
Te8140  Te  0.693551  0.599055  0.465975
Te8141  Te  0.682188  0.605634  0.500000
Mo4074  Mo  0.685976  0.612213  0.482988
Te8142  Te  0.682188  0.605634  0.465975
Te8143  Te  0.693551  0.612213  0.500000
Mo4075  Mo  0.697339  0.605634  0.482988
Te8144  Te  0.693551  0.612213  0.465975
Te8145  Te  0.682188  0.618792  0.500000
Mo4076  Mo  0.685976  0.625371  0.482988
Te8146  Te  0.682188  0.618792  0.465975
Te8147  Te  0.693551  0.625371  0.500000
Mo4077  Mo  0.697339  0.618792  0.482988
Te8148  Te  0.693551  0.625371  0.465975
Te8149  Te  0.704915  0.579318  0.500000
Mo4078  Mo  0.708703  0.585897  0.482988
Te8150  Te  0.704915  0.579318  0.465975
Te8151  Te  0.716279  0.585897  0.500000
Mo4079  Mo  0.720067  0.579318  0.482988
Te8152  Te  0.716279  0.585897  0.465975
Te8153  Te  0.704915  0.592476  0.500000
Mo4080  Mo  0.708703  0.599055  0.482988
Te8154  Te  0.704915  0.592476  0.465975
Te8155  Te  0.716279  0.599055  0.500000
Mo4081  Mo  0.720067  0.592476  0.482988
Te8156  Te  0.716279  0.599055  0.465975
Te8157  Te  0.704915  0.605634  0.500000
Mo4082  Mo  0.708703  0.612213  0.482988
Te8158  Te  0.704915  0.605634  0.465975
Te8159  Te  0.716279  0.612213  0.500000
Mo4083  Mo  0.720067  0.605634  0.482988
Te8160  Te  0.716279  0.612213  0.465975
Te8161  Te  0.704915  0.618792  0.500000
Mo4084  Mo  0.708703  0.625371  0.482988
Te8162  Te  0.704915  0.618792  0.465975
Te8163  Te  0.716279  0.625371  0.500000
Mo4085  Mo  0.720067  0.618792  0.482988
Te8164  Te  0.716279  0.625371  0.465975
Te8165  Te  0.727642  0.579318  0.500000
Mo4086  Mo  0.731430  0.585897  0.482988
Te8166  Te  0.727642  0.579318  0.465975
Te8167  Te  0.739006  0.585897  0.500000
Mo4087  Mo  0.742794  0.579318  0.482988
Te8168  Te  0.739006  0.585897  0.465975
Te8169  Te  0.727642  0.592476  0.500000
Mo4088  Mo  0.731430  0.599055  0.482988
Te8170  Te  0.727642  0.592476  0.465975
Te8171  Te  0.739006  0.599055  0.500000
Mo4089  Mo  0.742794  0.592476  0.482988
Te8172  Te  0.739006  0.599055  0.465975
Te8173  Te  0.727642  0.605634  0.500000
Mo4090  Mo  0.731430  0.612213  0.482988
Te8174  Te  0.727642  0.605634  0.465975
Te8175  Te  0.739006  0.612213  0.500000
Mo4091  Mo  0.742794  0.605634  0.482988
Te8176  Te  0.739006  0.612213  0.465975
Te8177  Te  0.727642  0.618792  0.500000
Mo4092  Mo  0.731430  0.625371  0.482988
Te8178  Te  0.727642  0.618792  0.465975
Te8179  Te  0.739006  0.625371  0.500000
Mo4093  Mo  0.742794  0.618792  0.482988
Te8180  Te  0.739006  0.625371  0.465975
Te8181  Te  0.750370  0.579318  0.500000
Mo4094  Mo  0.754158  0.585897  0.482988
Te8182  Te  0.750370  0.579318  0.465975
Te8183  Te  0.761733  0.585897  0.500000
Mo4095  Mo  0.765521  0.579318  0.482988
Te8184  Te  0.761733  0.585897  0.465975
Te8185  Te  0.750370  0.592476  0.500000
Mo4096  Mo  0.754158  0.599055  0.482988
Te8186  Te  0.750370  0.592476  0.465975
Te8187  Te  0.761733  0.599055  0.500000
Mo4097  Mo  0.765521  0.592476  0.482988
Te8188  Te  0.761733  0.599055  0.465975
Te8189  Te  0.750370  0.605634  0.500000
Mo4098  Mo  0.754158  0.612213  0.482988
Te8190  Te  0.750370  0.605634  0.465975
Te8191  Te  0.761733  0.612213  0.500000
Mo4099  Mo  0.765521  0.605634  0.482988
Te8192  Te  0.761733  0.612213  0.465975
Te8193  Te  0.750370  0.618792  0.500000
Mo4100  Mo  0.754158  0.625371  0.482988
Te8194  Te  0.750370  0.618792  0.465975
Te8195  Te  0.761733  0.625371  0.500000
Mo4101  Mo  0.765521  0.618792  0.482988
Te8196  Te  0.761733  0.625371  0.465975
Te8197  Te  0.773097  0.579318  0.500000
Mo4102  Mo  0.776885  0.585897  0.482988
Te8198  Te  0.773097  0.579318  0.465975
Te8199  Te  0.784461  0.585897  0.500000
Mo4103  Mo  0.788248  0.579318  0.482988
Te8200  Te  0.784461  0.585897  0.465975
Te8201  Te  0.773097  0.592476  0.500000
Mo4104  Mo  0.776885  0.599055  0.482988
Te8202  Te  0.773097  0.592476  0.465975
Te8203  Te  0.784461  0.599055  0.500000
Mo4105  Mo  0.788248  0.592476  0.482988
Te8204  Te  0.784461  0.599055  0.465975
Te8205  Te  0.773097  0.605634  0.500000
Mo4106  Mo  0.776885  0.612213  0.482988
Te8206  Te  0.773097  0.605634  0.465975
Te8207  Te  0.784461  0.612213  0.500000
Mo4107  Mo  0.788248  0.605634  0.482988
Te8208  Te  0.784461  0.612213  0.465975
Te8209  Te  0.773097  0.618792  0.500000
Mo4108  Mo  0.776885  0.625371  0.482988
Te8210  Te  0.773097  0.618792  0.465975
Te8211  Te  0.784461  0.625371  0.500000
Mo4109  Mo  0.788248  0.618792  0.482988
Te8212  Te  0.784461  0.625371  0.465975
Te8213  Te  0.795824  0.579318  0.500000
Mo4110  Mo  0.799612  0.585897  0.482988
Te8214  Te  0.795824  0.579318  0.465975
Te8215  Te  0.807188  0.585897  0.500000
Mo4111  Mo  0.810976  0.579318  0.482988
Te8216  Te  0.807188  0.585897  0.465975
Te8217  Te  0.795824  0.592476  0.500000
Mo4112  Mo  0.799612  0.599055  0.482988
Te8218  Te  0.795824  0.592476  0.465975
Te8219  Te  0.807188  0.599055  0.500000
Mo4113  Mo  0.810976  0.592476  0.482988
Te8220  Te  0.807188  0.599055  0.465975
Te8221  Te  0.795824  0.605634  0.500000
Mo4114  Mo  0.799612  0.612213  0.482988
Te8222  Te  0.795824  0.605634  0.465975
Te8223  Te  0.807188  0.612213  0.500000
Mo4115  Mo  0.810976  0.605634  0.482988
Te8224  Te  0.807188  0.612213  0.465975
Te8225  Te  0.795824  0.618792  0.500000
Mo4116  Mo  0.799612  0.625371  0.482988
Te8226  Te  0.795824  0.618792  0.465975
Te8227  Te  0.807188  0.625371  0.500000
Mo4117  Mo  0.810976  0.618792  0.482988
Te8228  Te  0.807188  0.625371  0.465975
Te8229  Te  0.818551  0.579318  0.500000
Mo4118  Mo  0.822339  0.585897  0.482988
Te8230  Te  0.818551  0.579318  0.465975
Te8231  Te  0.829915  0.585897  0.500000
Mo4119  Mo  0.833703  0.579318  0.482988
Te8232  Te  0.829915  0.585897  0.465975
Te8233  Te  0.818551  0.592476  0.500000
Mo4120  Mo  0.822339  0.599055  0.482988
Te8234  Te  0.818551  0.592476  0.465975
Te8235  Te  0.829915  0.599055  0.500000
Mo4121  Mo  0.833703  0.592476  0.482988
Te8236  Te  0.829915  0.599055  0.465975
Te8237  Te  0.818551  0.605634  0.500000
Mo4122  Mo  0.822339  0.612213  0.482988
Te8238  Te  0.818551  0.605634  0.465975
Te8239  Te  0.829915  0.612213  0.500000
Mo4123  Mo  0.833703  0.605634  0.482988
Te8240  Te  0.829915  0.612213  0.465975
Te8241  Te  0.818551  0.618792  0.500000
Mo4124  Mo  0.822339  0.625371  0.482988
Te8242  Te  0.818551  0.618792  0.465975
Te8243  Te  0.829915  0.625371  0.500000
Mo4125  Mo  0.833703  0.618792  0.482988
Te8244  Te  0.829915  0.625371  0.465975
Te8245  Te  0.841279  0.579318  0.500000
Mo4126  Mo  0.845067  0.585897  0.482988
Te8246  Te  0.841279  0.579318  0.465975
Te8247  Te  0.852642  0.585897  0.500000
Mo4127  Mo  0.856430  0.579318  0.482988
Te8248  Te  0.852642  0.585897  0.465975
Te8249  Te  0.841279  0.592476  0.500000
Mo4128  Mo  0.845067  0.599055  0.482988
Te8250  Te  0.841279  0.592476  0.465975
Te8251  Te  0.852642  0.599055  0.500000
Mo4129  Mo  0.856430  0.592476  0.482988
Te8252  Te  0.852642  0.599055  0.465975
Te8253  Te  0.841279  0.605634  0.500000
Mo4130  Mo  0.845067  0.612213  0.482988
Te8254  Te  0.841279  0.605634  0.465975
Te8255  Te  0.852642  0.612213  0.500000
Mo4131  Mo  0.856430  0.605634  0.482988
Te8256  Te  0.852642  0.612213  0.465975
Te8257  Te  0.841279  0.618792  0.500000
Mo4132  Mo  0.845067  0.625371  0.482988
Te8258  Te  0.841279  0.618792  0.465975
Te8259  Te  0.852642  0.625371  0.500000
Mo4133  Mo  0.856430  0.618792  0.482988
Te8260  Te  0.852642  0.625371  0.465975
Te8261  Te  0.864006  0.579318  0.500000
Mo4134  Mo  0.867794  0.585897  0.482988
Te8262  Te  0.864006  0.579318  0.465975
Te8263  Te  0.875370  0.585897  0.500000
Mo4135  Mo  0.879158  0.579318  0.482988
Te8264  Te  0.875370  0.585897  0.465975
Te8265  Te  0.864006  0.592476  0.500000
Mo4136  Mo  0.867794  0.599055  0.482988
Te8266  Te  0.864006  0.592476  0.465975
Te8267  Te  0.875370  0.599055  0.500000
Mo4137  Mo  0.879158  0.592476  0.482988
Te8268  Te  0.875370  0.599055  0.465975
Te8269  Te  0.864006  0.605634  0.500000
Mo4138  Mo  0.867794  0.612213  0.482988
Te8270  Te  0.864006  0.605634  0.465975
Te8271  Te  0.875370  0.612213  0.500000
Mo4139  Mo  0.879158  0.605634  0.482988
Te8272  Te  0.875370  0.612213  0.465975
Te8273  Te  0.864006  0.618792  0.500000
Mo4140  Mo  0.867794  0.625371  0.482988
Te8274  Te  0.864006  0.618792  0.465975
Te8275  Te  0.875370  0.625371  0.500000
Mo4141  Mo  0.879158  0.618792  0.482988
Te8276  Te  0.875370  0.625371  0.465975
Te8277  Te  0.886733  0.579318  0.500000
Mo4142  Mo  0.890521  0.585897  0.482988
Te8278  Te  0.886733  0.579318  0.465975
Te8279  Te  0.898097  0.585897  0.500000
Mo4143  Mo  0.901885  0.579318  0.482988
Te8280  Te  0.898097  0.585897  0.465975
Te8281  Te  0.886733  0.592476  0.500000
Mo4144  Mo  0.890521  0.599055  0.482988
Te8282  Te  0.886733  0.592476  0.465975
Te8283  Te  0.898097  0.599055  0.500000
Mo4145  Mo  0.901885  0.592476  0.482988
Te8284  Te  0.898097  0.599055  0.465975
Te8285  Te  0.886733  0.605634  0.500000
Mo4146  Mo  0.890521  0.612213  0.482988
Te8286  Te  0.886733  0.605634  0.465975
Te8287  Te  0.898097  0.612213  0.500000
Mo4147  Mo  0.901885  0.605634  0.482988
Te8288  Te  0.898097  0.612213  0.465975
Te8289  Te  0.886733  0.618792  0.500000
Mo4148  Mo  0.890521  0.625371  0.482988
Te8290  Te  0.886733  0.618792  0.465975
Te8291  Te  0.898097  0.625371  0.500000
Mo4149  Mo  0.901885  0.618792  0.482988
Te8292  Te  0.898097  0.625371  0.465975
Te8293  Te  0.909461  0.579318  0.500000
Mo4150  Mo  0.913248  0.585897  0.482988
Te8294  Te  0.909461  0.579318  0.465975
Te8295  Te  0.920824  0.585897  0.500000
Mo4151  Mo  0.924612  0.579318  0.482988
Te8296  Te  0.920824  0.585897  0.465975
Te8297  Te  0.909461  0.592476  0.500000
Mo4152  Mo  0.913248  0.599055  0.482988
Te8298  Te  0.909461  0.592476  0.465975
Te8299  Te  0.920824  0.599055  0.500000
Mo4153  Mo  0.924612  0.592476  0.482988
Te8300  Te  0.920824  0.599055  0.465975
Te8301  Te  0.909461  0.605634  0.500000
Mo4154  Mo  0.913248  0.612213  0.482988
Te8302  Te  0.909461  0.605634  0.465975
Te8303  Te  0.920824  0.612213  0.500000
Mo4155  Mo  0.924612  0.605634  0.482988
Te8304  Te  0.920824  0.612213  0.465975
Te8305  Te  0.909461  0.618792  0.500000
Mo4156  Mo  0.913248  0.625371  0.482988
Te8306  Te  0.909461  0.618792  0.465975
Te8307  Te  0.920824  0.625371  0.500000
Mo4157  Mo  0.924612  0.618792  0.482988
Te8308  Te  0.920824  0.625371  0.465975
Te8309  Te  0.932188  0.579318  0.500000
Mo4158  Mo  0.935976  0.585897  0.482988
Te8310  Te  0.932188  0.579318  0.465975
Te8311  Te  0.943552  0.585897  0.500000
Mo4159  Mo  0.947339  0.579318  0.482988
Te8312  Te  0.943552  0.585897  0.465975
Te8313  Te  0.932188  0.592476  0.500000
Mo4160  Mo  0.935976  0.599055  0.482988
Te8314  Te  0.932188  0.592476  0.465975
Te8315  Te  0.943552  0.599055  0.500000
Mo4161  Mo  0.947339  0.592476  0.482988
Te8316  Te  0.943552  0.599055  0.465975
Te8317  Te  0.932188  0.605634  0.500000
Mo4162  Mo  0.935976  0.612213  0.482988
Te8318  Te  0.932188  0.605634  0.465975
Te8319  Te  0.943552  0.612213  0.500000
Mo4163  Mo  0.947339  0.605634  0.482988
Te8320  Te  0.943552  0.612213  0.465975
Te8321  Te  0.932188  0.618792  0.500000
Mo4164  Mo  0.935976  0.625371  0.482988
Te8322  Te  0.932188  0.618792  0.465975
Te8323  Te  0.943552  0.625371  0.500000
Mo4165  Mo  0.947339  0.618792  0.482988
Te8324  Te  0.943552  0.625371  0.465975
Te8325  Te  0.954915  0.579318  0.500000
Mo4166  Mo  0.958703  0.585897  0.482988
Te8326  Te  0.954915  0.579318  0.465975
Te8327  Te  0.966279  0.585897  0.500000
Mo4167  Mo  0.970067  0.579318  0.482988
Te8328  Te  0.966279  0.585897  0.465975
Te8329  Te  0.954915  0.592476  0.500000
Mo4168  Mo  0.958703  0.599055  0.482988
Te8330  Te  0.954915  0.592476  0.465975
Te8331  Te  0.966279  0.599055  0.500000
Mo4169  Mo  0.970067  0.592476  0.482988
Te8332  Te  0.966279  0.599055  0.465975
Te8333  Te  0.954915  0.605634  0.500000
Mo4170  Mo  0.958703  0.612213  0.482988
Te8334  Te  0.954915  0.605634  0.465975
Te8335  Te  0.966279  0.612213  0.500000
Mo4171  Mo  0.970067  0.605634  0.482988
Te8336  Te  0.966279  0.612213  0.465975
Te8337  Te  0.954915  0.618792  0.500000
Mo4172  Mo  0.958703  0.625371  0.482988
Te8338  Te  0.954915  0.618792  0.465975
Te8339  Te  0.966279  0.625371  0.500000
Mo4173  Mo  0.970067  0.618792  0.482988
Te8340  Te  0.966279  0.625371  0.465975
Te8341  Te  0.977642  0.579318  0.500000
Mo4174  Mo  0.981430  0.585897  0.482988
Te8342  Te  0.977642  0.579318  0.465975
Te8343  Te  0.989006  0.585897  0.500000
Mo4175  Mo  0.992794  0.579318  0.482988
Te8344  Te  0.989006  0.585897  0.465975
Te8345  Te  0.977642  0.592476  0.500000
Mo4176  Mo  0.981430  0.599055  0.482988
Te8346  Te  0.977642  0.592476  0.465975
Te8347  Te  0.989006  0.599055  0.500000
Mo4177  Mo  0.992794  0.592476  0.482988
Te8348  Te  0.989006  0.599055  0.465975
Te8349  Te  0.977642  0.605634  0.500000
Mo4178  Mo  0.981430  0.612213  0.482988
Te8350  Te  0.977642  0.605634  0.465975
Te8351  Te  0.989006  0.612213  0.500000
Mo4179  Mo  0.992794  0.605634  0.482988
Te8352  Te  0.989006  0.612213  0.465975
Te8353  Te  0.977642  0.618792  0.500000
Mo4180  Mo  0.981430  0.625371  0.482988
Te8354  Te  0.977642  0.618792  0.465975
Te8355  Te  0.989006  0.625371  0.500000
Mo4181  Mo  0.992794  0.618792  0.482988
Te8356  Te  0.989006  0.625371  0.465975
Te8357  Te  0.000370  0.631950  0.500000
Mo4182  Mo  0.004158  0.638529  0.482988
Te8358  Te  0.000370  0.631950  0.465975
Te8359  Te  0.011733  0.638529  0.500000
Mo4183  Mo  0.015521  0.631950  0.482988
Te8360  Te  0.011733  0.638529  0.465975
Te8361  Te  0.000370  0.645107  0.500000
Mo4184  Mo  0.004158  0.651686  0.482988
Te8362  Te  0.000370  0.645107  0.465975
Te8363  Te  0.011733  0.651686  0.500000
Mo4185  Mo  0.015521  0.645107  0.482988
Te8364  Te  0.011733  0.651686  0.465975
Te8365  Te  0.000370  0.658265  0.500000
Mo4186  Mo  0.004158  0.664844  0.482988
Te8366  Te  0.000370  0.658265  0.465975
Te8367  Te  0.011733  0.664844  0.500000
Mo4187  Mo  0.015521  0.658265  0.482988
Te8368  Te  0.011733  0.664844  0.465975
Te8369  Te  0.000370  0.671423  0.500000
Mo4188  Mo  0.004158  0.678002  0.482988
Te8370  Te  0.000370  0.671423  0.465975
Te8371  Te  0.011733  0.678002  0.500000
Mo4189  Mo  0.015521  0.671423  0.482988
Te8372  Te  0.011733  0.678002  0.465975
Te8373  Te  0.023097  0.631950  0.500000
Mo4190  Mo  0.026885  0.638529  0.482988
Te8374  Te  0.023097  0.631950  0.465975
Te8375  Te  0.034461  0.638529  0.500000
Mo4191  Mo  0.038249  0.631950  0.482988
Te8376  Te  0.034461  0.638529  0.465975
Te8377  Te  0.023097  0.645107  0.500000
Mo4192  Mo  0.026885  0.651686  0.482988
Te8378  Te  0.023097  0.645107  0.465975
Te8379  Te  0.034461  0.651686  0.500000
Mo4193  Mo  0.038249  0.645107  0.482988
Te8380  Te  0.034461  0.651686  0.465975
Te8381  Te  0.023097  0.658265  0.500000
Mo4194  Mo  0.026885  0.664844  0.482988
Te8382  Te  0.023097  0.658265  0.465975
Te8383  Te  0.034461  0.664844  0.500000
Mo4195  Mo  0.038249  0.658265  0.482988
Te8384  Te  0.034461  0.664844  0.465975
Te8385  Te  0.023097  0.671423  0.500000
Mo4196  Mo  0.026885  0.678002  0.482988
Te8386  Te  0.023097  0.671423  0.465975
Te8387  Te  0.034461  0.678002  0.500000
Mo4197  Mo  0.038249  0.671423  0.482988
Te8388  Te  0.034461  0.678002  0.465975
Te8389  Te  0.045824  0.631950  0.500000
Mo4198  Mo  0.049612  0.638529  0.482988
Te8390  Te  0.045824  0.631950  0.465975
Te8391  Te  0.057188  0.638529  0.500000
Mo4199  Mo  0.060976  0.631950  0.482988
Te8392  Te  0.057188  0.638529  0.465975
Te8393  Te  0.045824  0.645107  0.500000
Mo4200  Mo  0.049612  0.651686  0.482988
Te8394  Te  0.045824  0.645107  0.465975
Te8395  Te  0.057188  0.651686  0.500000
Mo4201  Mo  0.060976  0.645107  0.482988
Te8396  Te  0.057188  0.651686  0.465975
Te8397  Te  0.045824  0.658265  0.500000
Mo4202  Mo  0.049612  0.664844  0.482988
Te8398  Te  0.045824  0.658265  0.465975
Te8399  Te  0.057188  0.664844  0.500000
Mo4203  Mo  0.060976  0.658265  0.482988
Te8400  Te  0.057188  0.664844  0.465975
Te8401  Te  0.045824  0.671423  0.500000
Mo4204  Mo  0.049612  0.678002  0.482988
Te8402  Te  0.045824  0.671423  0.465975
Te8403  Te  0.057188  0.678002  0.500000
Mo4205  Mo  0.060976  0.671423  0.482988
Te8404  Te  0.057188  0.678002  0.465975
Te8405  Te  0.068552  0.631950  0.500000
Mo4206  Mo  0.072339  0.638529  0.482988
Te8406  Te  0.068552  0.631950  0.465975
Te8407  Te  0.079915  0.638529  0.500000
Mo4207  Mo  0.083703  0.631950  0.482988
Te8408  Te  0.079915  0.638529  0.465975
Te8409  Te  0.068552  0.645107  0.500000
Mo4208  Mo  0.072339  0.651686  0.482988
Te8410  Te  0.068552  0.645107  0.465975
Te8411  Te  0.079915  0.651686  0.500000
Mo4209  Mo  0.083703  0.645107  0.482988
Te8412  Te  0.079915  0.651686  0.465975
Te8413  Te  0.068552  0.658265  0.500000
Mo4210  Mo  0.072339  0.664844  0.482988
Te8414  Te  0.068552  0.658265  0.465975
Te8415  Te  0.079915  0.664844  0.500000
Mo4211  Mo  0.083703  0.658265  0.482988
Te8416  Te  0.079915  0.664844  0.465975
Te8417  Te  0.068552  0.671423  0.500000
Mo4212  Mo  0.072339  0.678002  0.482988
Te8418  Te  0.068552  0.671423  0.465975
Te8419  Te  0.079915  0.678002  0.500000
Mo4213  Mo  0.083703  0.671423  0.482988
Te8420  Te  0.079915  0.678002  0.465975
Te8421  Te  0.091279  0.631950  0.500000
Mo4214  Mo  0.095067  0.638529  0.482988
Te8422  Te  0.091279  0.631950  0.465975
Te8423  Te  0.102642  0.638529  0.500000
Mo4215  Mo  0.106430  0.631950  0.482988
Te8424  Te  0.102642  0.638529  0.465975
Te8425  Te  0.091279  0.645107  0.500000
Mo4216  Mo  0.095067  0.651686  0.482988
Te8426  Te  0.091279  0.645107  0.465975
Te8427  Te  0.102642  0.651686  0.500000
Mo4217  Mo  0.106430  0.645107  0.482988
Te8428  Te  0.102642  0.651686  0.465975
Te8429  Te  0.091279  0.658265  0.500000
Mo4218  Mo  0.095067  0.664844  0.482988
Te8430  Te  0.091279  0.658265  0.465975
Te8431  Te  0.102642  0.664844  0.500000
Mo4219  Mo  0.106430  0.658265  0.482988
Te8432  Te  0.102642  0.664844  0.465975
Te8433  Te  0.091279  0.671423  0.500000
Mo4220  Mo  0.095067  0.678002  0.482988
Te8434  Te  0.091279  0.671423  0.465975
Te8435  Te  0.102642  0.678002  0.500000
Mo4221  Mo  0.106430  0.671423  0.482988
Te8436  Te  0.102642  0.678002  0.465975
Te8437  Te  0.114006  0.631950  0.500000
Mo4222  Mo  0.117794  0.638529  0.482988
Te8438  Te  0.114006  0.631950  0.465975
Te8439  Te  0.125370  0.638529  0.500000
Mo4223  Mo  0.129158  0.631950  0.482988
Te8440  Te  0.125370  0.638529  0.465975
Te8441  Te  0.114006  0.645107  0.500000
Mo4224  Mo  0.117794  0.651686  0.482988
Te8442  Te  0.114006  0.645107  0.465975
Te8443  Te  0.125370  0.651686  0.500000
Mo4225  Mo  0.129158  0.645107  0.482988
Te8444  Te  0.125370  0.651686  0.465975
Te8445  Te  0.114006  0.658265  0.500000
Mo4226  Mo  0.117794  0.664844  0.482988
Te8446  Te  0.114006  0.658265  0.465975
Te8447  Te  0.125370  0.664844  0.500000
Mo4227  Mo  0.129158  0.658265  0.482988
Te8448  Te  0.125370  0.664844  0.465975
Te8449  Te  0.114006  0.671423  0.500000
Mo4228  Mo  0.117794  0.678002  0.482988
Te8450  Te  0.114006  0.671423  0.465975
Te8451  Te  0.125370  0.678002  0.500000
Mo4229  Mo  0.129158  0.671423  0.482988
Te8452  Te  0.125370  0.678002  0.465975
Te8453  Te  0.136733  0.631950  0.500000
Mo4230  Mo  0.140521  0.638529  0.482988
Te8454  Te  0.136733  0.631950  0.465975
Te8455  Te  0.148097  0.638529  0.500000
Mo4231  Mo  0.151885  0.631950  0.482988
Te8456  Te  0.148097  0.638529  0.465975
Te8457  Te  0.136733  0.645107  0.500000
Mo4232  Mo  0.140521  0.651686  0.482988
Te8458  Te  0.136733  0.645107  0.465975
Te8459  Te  0.148097  0.651686  0.500000
Mo4233  Mo  0.151885  0.645107  0.482988
Te8460  Te  0.148097  0.651686  0.465975
Te8461  Te  0.136733  0.658265  0.500000
Mo4234  Mo  0.140521  0.664844  0.482988
Te8462  Te  0.136733  0.658265  0.465975
Te8463  Te  0.148097  0.664844  0.500000
Mo4235  Mo  0.151885  0.658265  0.482988
Te8464  Te  0.148097  0.664844  0.465975
Te8465  Te  0.136733  0.671423  0.500000
Mo4236  Mo  0.140521  0.678002  0.482988
Te8466  Te  0.136733  0.671423  0.465975
Te8467  Te  0.148097  0.678002  0.500000
Mo4237  Mo  0.151885  0.671423  0.482988
Te8468  Te  0.148097  0.678002  0.465975
Te8469  Te  0.159461  0.631950  0.500000
Mo4238  Mo  0.163248  0.638529  0.482988
Te8470  Te  0.159461  0.631950  0.465975
Te8471  Te  0.170824  0.638529  0.500000
Mo4239  Mo  0.174612  0.631950  0.482988
Te8472  Te  0.170824  0.638529  0.465975
Te8473  Te  0.159461  0.645107  0.500000
Mo4240  Mo  0.163248  0.651686  0.482988
Te8474  Te  0.159461  0.645107  0.465975
Te8475  Te  0.170824  0.651686  0.500000
Mo4241  Mo  0.174612  0.645107  0.482988
Te8476  Te  0.170824  0.651686  0.465975
Te8477  Te  0.159461  0.658265  0.500000
Mo4242  Mo  0.163248  0.664844  0.482988
Te8478  Te  0.159461  0.658265  0.465975
Te8479  Te  0.170824  0.664844  0.500000
Mo4243  Mo  0.174612  0.658265  0.482988
Te8480  Te  0.170824  0.664844  0.465975
Te8481  Te  0.159461  0.671423  0.500000
Mo4244  Mo  0.163248  0.678002  0.482988
Te8482  Te  0.159461  0.671423  0.465975
Te8483  Te  0.170824  0.678002  0.500000
Mo4245  Mo  0.174612  0.671423  0.482988
Te8484  Te  0.170824  0.678002  0.465975
Te8485  Te  0.182188  0.631950  0.500000
Mo4246  Mo  0.185976  0.638529  0.482988
Te8486  Te  0.182188  0.631950  0.465975
Te8487  Te  0.193551  0.638529  0.500000
Mo4247  Mo  0.197339  0.631950  0.482988
Te8488  Te  0.193551  0.638529  0.465975
Te8489  Te  0.182188  0.645107  0.500000
Mo4248  Mo  0.185976  0.651686  0.482988
Te8490  Te  0.182188  0.645107  0.465975
Te8491  Te  0.193551  0.651686  0.500000
Mo4249  Mo  0.197339  0.645107  0.482988
Te8492  Te  0.193551  0.651686  0.465975
Te8493  Te  0.182188  0.658265  0.500000
Mo4250  Mo  0.185976  0.664844  0.482988
Te8494  Te  0.182188  0.658265  0.465975
Te8495  Te  0.193551  0.664844  0.500000
Mo4251  Mo  0.197339  0.658265  0.482988
Te8496  Te  0.193551  0.664844  0.465975
Te8497  Te  0.182188  0.671423  0.500000
Mo4252  Mo  0.185976  0.678002  0.482988
Te8498  Te  0.182188  0.671423  0.465975
Te8499  Te  0.193551  0.678002  0.500000
Mo4253  Mo  0.197339  0.671423  0.482988
Te8500  Te  0.193551  0.678002  0.465975
Te8501  Te  0.204915  0.631950  0.500000
Mo4254  Mo  0.208703  0.638529  0.482988
Te8502  Te  0.204915  0.631950  0.465975
Te8503  Te  0.216279  0.638529  0.500000
Mo4255  Mo  0.220067  0.631950  0.482988
Te8504  Te  0.216279  0.638529  0.465975
Te8505  Te  0.204915  0.645107  0.500000
Mo4256  Mo  0.208703  0.651686  0.482988
Te8506  Te  0.204915  0.645107  0.465975
Te8507  Te  0.216279  0.651686  0.500000
Mo4257  Mo  0.220067  0.645107  0.482988
Te8508  Te  0.216279  0.651686  0.465975
Te8509  Te  0.204915  0.658265  0.500000
Mo4258  Mo  0.208703  0.664844  0.482988
Te8510  Te  0.204915  0.658265  0.465975
Te8511  Te  0.216279  0.664844  0.500000
Mo4259  Mo  0.220067  0.658265  0.482988
Te8512  Te  0.216279  0.664844  0.465975
Te8513  Te  0.204915  0.671423  0.500000
Mo4260  Mo  0.208703  0.678002  0.482988
Te8514  Te  0.204915  0.671423  0.465975
Te8515  Te  0.216279  0.678002  0.500000
Mo4261  Mo  0.220067  0.671423  0.482988
Te8516  Te  0.216279  0.678002  0.465975
Te8517  Te  0.227642  0.631950  0.500000
Mo4262  Mo  0.231430  0.638529  0.482988
Te8518  Te  0.227642  0.631950  0.465975
Te8519  Te  0.239006  0.638529  0.500000
Mo4263  Mo  0.242794  0.631950  0.482988
Te8520  Te  0.239006  0.638529  0.465975
Te8521  Te  0.227642  0.645107  0.500000
Mo4264  Mo  0.231430  0.651686  0.482988
Te8522  Te  0.227642  0.645107  0.465975
Te8523  Te  0.239006  0.651686  0.500000
Mo4265  Mo  0.242794  0.645107  0.482988
Te8524  Te  0.239006  0.651686  0.465975
Te8525  Te  0.227642  0.658265  0.500000
Mo4266  Mo  0.231430  0.664844  0.482988
Te8526  Te  0.227642  0.658265  0.465975
Te8527  Te  0.239006  0.664844  0.500000
Mo4267  Mo  0.242794  0.658265  0.482988
Te8528  Te  0.239006  0.664844  0.465975
Te8529  Te  0.227642  0.671423  0.500000
Mo4268  Mo  0.231430  0.678002  0.482988
Te8530  Te  0.227642  0.671423  0.465975
Te8531  Te  0.239006  0.678002  0.500000
Mo4269  Mo  0.242794  0.671423  0.482988
Te8532  Te  0.239006  0.678002  0.465975
Te8533  Te  0.250370  0.631950  0.500000
Mo4270  Mo  0.254158  0.638529  0.482988
Te8534  Te  0.250370  0.631950  0.465975
Te8535  Te  0.261733  0.638529  0.500000
Mo4271  Mo  0.265521  0.631950  0.482988
Te8536  Te  0.261733  0.638529  0.465975
Te8537  Te  0.250370  0.645107  0.500000
Mo4272  Mo  0.254158  0.651686  0.482988
Te8538  Te  0.250370  0.645107  0.465975
Te8539  Te  0.261733  0.651686  0.500000
Mo4273  Mo  0.265521  0.645107  0.482988
Te8540  Te  0.261733  0.651686  0.465975
Te8541  Te  0.250370  0.658265  0.500000
Mo4274  Mo  0.254158  0.664844  0.482988
Te8542  Te  0.250370  0.658265  0.465975
Te8543  Te  0.261733  0.664844  0.500000
Mo4275  Mo  0.265521  0.658265  0.482988
Te8544  Te  0.261733  0.664844  0.465975
Te8545  Te  0.250370  0.671423  0.500000
Mo4276  Mo  0.254158  0.678002  0.482988
Te8546  Te  0.250370  0.671423  0.465975
Te8547  Te  0.261733  0.678002  0.500000
Mo4277  Mo  0.265521  0.671423  0.482988
Te8548  Te  0.261733  0.678002  0.465975
Te8549  Te  0.273097  0.631950  0.500000
Mo4278  Mo  0.276885  0.638529  0.482988
Te8550  Te  0.273097  0.631950  0.465975
Te8551  Te  0.284461  0.638529  0.500000
Mo4279  Mo  0.288248  0.631950  0.482988
Te8552  Te  0.284461  0.638529  0.465975
Te8553  Te  0.273097  0.645107  0.500000
Mo4280  Mo  0.276885  0.651686  0.482988
Te8554  Te  0.273097  0.645107  0.465975
Te8555  Te  0.284461  0.651686  0.500000
Mo4281  Mo  0.288248  0.645107  0.482988
Te8556  Te  0.284461  0.651686  0.465975
Te8557  Te  0.273097  0.658265  0.500000
Mo4282  Mo  0.276885  0.664844  0.482988
Te8558  Te  0.273097  0.658265  0.465975
Te8559  Te  0.284461  0.664844  0.500000
Mo4283  Mo  0.288248  0.658265  0.482988
Te8560  Te  0.284461  0.664844  0.465975
Te8561  Te  0.273097  0.671423  0.500000
Mo4284  Mo  0.276885  0.678002  0.482988
Te8562  Te  0.273097  0.671423  0.465975
Te8563  Te  0.284461  0.678002  0.500000
Mo4285  Mo  0.288248  0.671423  0.482988
Te8564  Te  0.284461  0.678002  0.465975
Te8565  Te  0.295824  0.631950  0.500000
Mo4286  Mo  0.299612  0.638529  0.482988
Te8566  Te  0.295824  0.631950  0.465975
Te8567  Te  0.307188  0.638529  0.500000
Mo4287  Mo  0.310976  0.631950  0.482988
Te8568  Te  0.307188  0.638529  0.465975
Te8569  Te  0.295824  0.645107  0.500000
Mo4288  Mo  0.299612  0.651686  0.482988
Te8570  Te  0.295824  0.645107  0.465975
Te8571  Te  0.307188  0.651686  0.500000
Mo4289  Mo  0.310976  0.645107  0.482988
Te8572  Te  0.307188  0.651686  0.465975
Te8573  Te  0.295824  0.658265  0.500000
Mo4290  Mo  0.299612  0.664844  0.482988
Te8574  Te  0.295824  0.658265  0.465975
Te8575  Te  0.307188  0.664844  0.500000
Mo4291  Mo  0.310976  0.658265  0.482988
Te8576  Te  0.307188  0.664844  0.465975
Te8577  Te  0.295824  0.671423  0.500000
Mo4292  Mo  0.299612  0.678002  0.482988
Te8578  Te  0.295824  0.671423  0.465975
Te8579  Te  0.307188  0.678002  0.500000
Mo4293  Mo  0.310976  0.671423  0.482988
Te8580  Te  0.307188  0.678002  0.465975
Te8581  Te  0.318551  0.631950  0.500000
Mo4294  Mo  0.322339  0.638529  0.482988
Te8582  Te  0.318551  0.631950  0.465975
Te8583  Te  0.329915  0.638529  0.500000
Mo4295  Mo  0.333703  0.631950  0.482988
Te8584  Te  0.329915  0.638529  0.465975
Te8585  Te  0.318551  0.645107  0.500000
Mo4296  Mo  0.322339  0.651686  0.482988
Te8586  Te  0.318551  0.645107  0.465975
Te8587  Te  0.329915  0.651686  0.500000
Mo4297  Mo  0.333703  0.645107  0.482988
Te8588  Te  0.329915  0.651686  0.465975
Te8589  Te  0.318551  0.658265  0.500000
Mo4298  Mo  0.322339  0.664844  0.482988
Te8590  Te  0.318551  0.658265  0.465975
Te8591  Te  0.329915  0.664844  0.500000
Mo4299  Mo  0.333703  0.658265  0.482988
Te8592  Te  0.329915  0.664844  0.465975
Te8593  Te  0.318551  0.671423  0.500000
Mo4300  Mo  0.322339  0.678002  0.482988
Te8594  Te  0.318551  0.671423  0.465975
Te8595  Te  0.329915  0.678002  0.500000
Mo4301  Mo  0.333703  0.671423  0.482988
Te8596  Te  0.329915  0.678002  0.465975
Te8597  Te  0.341279  0.631950  0.500000
Mo4302  Mo  0.345067  0.638529  0.482988
Te8598  Te  0.341279  0.631950  0.465975
Te8599  Te  0.352642  0.638529  0.500000
Mo4303  Mo  0.356430  0.631950  0.482988
Te8600  Te  0.352642  0.638529  0.465975
Te8601  Te  0.341279  0.645107  0.500000
Mo4304  Mo  0.345067  0.651686  0.482988
Te8602  Te  0.341279  0.645107  0.465975
Te8603  Te  0.352642  0.651686  0.500000
Mo4305  Mo  0.356430  0.645107  0.482988
Te8604  Te  0.352642  0.651686  0.465975
Te8605  Te  0.341279  0.658265  0.500000
Mo4306  Mo  0.345067  0.664844  0.482988
Te8606  Te  0.341279  0.658265  0.465975
Te8607  Te  0.352642  0.664844  0.500000
Mo4307  Mo  0.356430  0.658265  0.482988
Te8608  Te  0.352642  0.664844  0.465975
Te8609  Te  0.341279  0.671423  0.500000
Mo4308  Mo  0.345067  0.678002  0.482988
Te8610  Te  0.341279  0.671423  0.465975
Te8611  Te  0.352642  0.678002  0.500000
Mo4309  Mo  0.356430  0.671423  0.482988
Te8612  Te  0.352642  0.678002  0.465975
Te8613  Te  0.364006  0.631950  0.500000
Mo4310  Mo  0.367794  0.638529  0.482988
Te8614  Te  0.364006  0.631950  0.465975
Te8615  Te  0.375370  0.638529  0.500000
Mo4311  Mo  0.379158  0.631950  0.482988
Te8616  Te  0.375370  0.638529  0.465975
Te8617  Te  0.364006  0.645107  0.500000
Mo4312  Mo  0.367794  0.651686  0.482988
Te8618  Te  0.364006  0.645107  0.465975
Te8619  Te  0.375370  0.651686  0.500000
Mo4313  Mo  0.379158  0.645107  0.482988
Te8620  Te  0.375370  0.651686  0.465975
Te8621  Te  0.364006  0.658265  0.500000
Mo4314  Mo  0.367794  0.664844  0.482988
Te8622  Te  0.364006  0.658265  0.465975
Te8623  Te  0.375370  0.664844  0.500000
Mo4315  Mo  0.379158  0.658265  0.482988
Te8624  Te  0.375370  0.664844  0.465975
Te8625  Te  0.364006  0.671423  0.500000
Mo4316  Mo  0.367794  0.678002  0.482988
Te8626  Te  0.364006  0.671423  0.465975
Te8627  Te  0.375370  0.678002  0.500000
Mo4317  Mo  0.379158  0.671423  0.482988
Te8628  Te  0.375370  0.678002  0.465975
Te8629  Te  0.386733  0.631950  0.500000
Mo4318  Mo  0.390521  0.638529  0.482988
Te8630  Te  0.386733  0.631950  0.465975
Te8631  Te  0.398097  0.638529  0.500000
Mo4319  Mo  0.401885  0.631950  0.482988
Te8632  Te  0.398097  0.638529  0.465975
Te8633  Te  0.386733  0.645107  0.500000
Mo4320  Mo  0.390521  0.651686  0.482988
Te8634  Te  0.386733  0.645107  0.465975
Te8635  Te  0.398097  0.651686  0.500000
Mo4321  Mo  0.401885  0.645107  0.482988
Te8636  Te  0.398097  0.651686  0.465975
Te8637  Te  0.386733  0.658265  0.500000
Mo4322  Mo  0.390521  0.664844  0.482988
Te8638  Te  0.386733  0.658265  0.465975
Te8639  Te  0.398097  0.664844  0.500000
Mo4323  Mo  0.401885  0.658265  0.482988
Te8640  Te  0.398097  0.664844  0.465975
Te8641  Te  0.386733  0.671423  0.500000
Mo4324  Mo  0.390521  0.678002  0.482988
Te8642  Te  0.386733  0.671423  0.465975
Te8643  Te  0.398097  0.678002  0.500000
Mo4325  Mo  0.401885  0.671423  0.482988
Te8644  Te  0.398097  0.678002  0.465975
Te8645  Te  0.409461  0.631950  0.500000
Mo4326  Mo  0.413248  0.638529  0.482988
Te8646  Te  0.409461  0.631950  0.465975
Te8647  Te  0.420824  0.638529  0.500000
Mo4327  Mo  0.424612  0.631950  0.482988
Te8648  Te  0.420824  0.638529  0.465975
Te8649  Te  0.409461  0.645107  0.500000
Mo4328  Mo  0.413248  0.651686  0.482988
Te8650  Te  0.409461  0.645107  0.465975
Te8651  Te  0.420824  0.651686  0.500000
Mo4329  Mo  0.424612  0.645107  0.482988
Te8652  Te  0.420824  0.651686  0.465975
Te8653  Te  0.409461  0.658265  0.500000
Mo4330  Mo  0.413248  0.664844  0.482988
Te8654  Te  0.409461  0.658265  0.465975
Te8655  Te  0.420824  0.664844  0.500000
Mo4331  Mo  0.424612  0.658265  0.482988
Te8656  Te  0.420824  0.664844  0.465975
Te8657  Te  0.409461  0.671423  0.500000
Mo4332  Mo  0.413248  0.678002  0.482988
Te8658  Te  0.409461  0.671423  0.465975
Te8659  Te  0.420824  0.678002  0.500000
Mo4333  Mo  0.424612  0.671423  0.482988
Te8660  Te  0.420824  0.678002  0.465975
Te8661  Te  0.432188  0.631950  0.500000
Mo4334  Mo  0.435976  0.638529  0.482988
Te8662  Te  0.432188  0.631950  0.465975
Te8663  Te  0.443552  0.638529  0.500000
Mo4335  Mo  0.447339  0.631950  0.482988
Te8664  Te  0.443552  0.638529  0.465975
Te8665  Te  0.432188  0.645107  0.500000
Mo4336  Mo  0.435976  0.651686  0.482988
Te8666  Te  0.432188  0.645107  0.465975
Te8667  Te  0.443552  0.651686  0.500000
Mo4337  Mo  0.447339  0.645107  0.482988
Te8668  Te  0.443552  0.651686  0.465975
Te8669  Te  0.432188  0.658265  0.500000
Mo4338  Mo  0.435976  0.664844  0.482988
Te8670  Te  0.432188  0.658265  0.465975
Te8671  Te  0.443552  0.664844  0.500000
Mo4339  Mo  0.447339  0.658265  0.482988
Te8672  Te  0.443552  0.664844  0.465975
Te8673  Te  0.432188  0.671423  0.500000
Mo4340  Mo  0.435976  0.678002  0.482988
Te8674  Te  0.432188  0.671423  0.465975
Te8675  Te  0.443552  0.678002  0.500000
Mo4341  Mo  0.447339  0.671423  0.482988
Te8676  Te  0.443552  0.678002  0.465975
Te8677  Te  0.454915  0.631950  0.500000
Mo4342  Mo  0.458703  0.638529  0.482988
Te8678  Te  0.454915  0.631950  0.465975
Te8679  Te  0.466279  0.638529  0.500000
Mo4343  Mo  0.470067  0.631950  0.482988
Te8680  Te  0.466279  0.638529  0.465975
Te8681  Te  0.454915  0.645107  0.500000
Mo4344  Mo  0.458703  0.651686  0.482988
Te8682  Te  0.454915  0.645107  0.465975
Te8683  Te  0.466279  0.651686  0.500000
Mo4345  Mo  0.470067  0.645107  0.482988
Te8684  Te  0.466279  0.651686  0.465975
Te8685  Te  0.454915  0.658265  0.500000
Mo4346  Mo  0.458703  0.664844  0.482988
Te8686  Te  0.454915  0.658265  0.465975
Te8687  Te  0.466279  0.664844  0.500000
Mo4347  Mo  0.470067  0.658265  0.482988
Te8688  Te  0.466279  0.664844  0.465975
Te8689  Te  0.454915  0.671423  0.500000
Mo4348  Mo  0.458703  0.678002  0.482988
Te8690  Te  0.454915  0.671423  0.465975
Te8691  Te  0.466279  0.678002  0.500000
Mo4349  Mo  0.470067  0.671423  0.482988
Te8692  Te  0.466279  0.678002  0.465975
Te8693  Te  0.477642  0.631950  0.500000
Mo4350  Mo  0.481430  0.638529  0.482988
Te8694  Te  0.477642  0.631950  0.465975
Te8695  Te  0.489006  0.638529  0.500000
Mo4351  Mo  0.492794  0.631950  0.482988
Te8696  Te  0.489006  0.638529  0.465975
Te8697  Te  0.477642  0.645107  0.500000
Mo4352  Mo  0.481430  0.651686  0.482988
Te8698  Te  0.477642  0.645107  0.465975
Te8699  Te  0.489006  0.651686  0.500000
Mo4353  Mo  0.492794  0.645107  0.482988
Te8700  Te  0.489006  0.651686  0.465975
Te8701  Te  0.477642  0.658265  0.500000
Mo4354  Mo  0.481430  0.664844  0.482988
Te8702  Te  0.477642  0.658265  0.465975
Te8703  Te  0.489006  0.664844  0.500000
Mo4355  Mo  0.492794  0.658265  0.482988
Te8704  Te  0.489006  0.664844  0.465975
Te8705  Te  0.477642  0.671423  0.500000
Mo4356  Mo  0.481430  0.678002  0.482988
Te8706  Te  0.477642  0.671423  0.465975
Te8707  Te  0.489006  0.678002  0.500000
Mo4357  Mo  0.492794  0.671423  0.482988
Te8708  Te  0.489006  0.678002  0.465975
Te8709  Te  0.500370  0.631950  0.500000
Mo4358  Mo  0.504158  0.638529  0.482988
Te8710  Te  0.500370  0.631950  0.465975
Te8711  Te  0.511733  0.638529  0.500000
Mo4359  Mo  0.515521  0.631950  0.482988
Te8712  Te  0.511733  0.638529  0.465975
Te8713  Te  0.500370  0.645107  0.500000
Mo4360  Mo  0.504158  0.651686  0.482988
Te8714  Te  0.500370  0.645107  0.465975
Te8715  Te  0.511733  0.651686  0.500000
Mo4361  Mo  0.515521  0.645107  0.482988
Te8716  Te  0.511733  0.651686  0.465975
Te8717  Te  0.500370  0.658265  0.500000
Mo4362  Mo  0.504158  0.664844  0.482988
Te8718  Te  0.500370  0.658265  0.465975
Te8719  Te  0.511733  0.664844  0.500000
Mo4363  Mo  0.515521  0.658265  0.482988
Te8720  Te  0.511733  0.664844  0.465975
Te8721  Te  0.500370  0.671423  0.500000
Mo4364  Mo  0.504158  0.678002  0.482988
Te8722  Te  0.500370  0.671423  0.465975
Te8723  Te  0.511733  0.678002  0.500000
Mo4365  Mo  0.515521  0.671423  0.482988
Te8724  Te  0.511733  0.678002  0.465975
Te8725  Te  0.523097  0.631950  0.500000
Mo4366  Mo  0.526885  0.638529  0.482988
Te8726  Te  0.523097  0.631950  0.465975
Te8727  Te  0.534461  0.638529  0.500000
Mo4367  Mo  0.538249  0.631950  0.482988
Te8728  Te  0.534461  0.638529  0.465975
Te8729  Te  0.523097  0.645107  0.500000
Mo4368  Mo  0.526885  0.651686  0.482988
Te8730  Te  0.523097  0.645107  0.465975
Te8731  Te  0.534461  0.651686  0.500000
Mo4369  Mo  0.538249  0.645107  0.482988
Te8732  Te  0.534461  0.651686  0.465975
Te8733  Te  0.523097  0.658265  0.500000
Mo4370  Mo  0.526885  0.664844  0.482988
Te8734  Te  0.523097  0.658265  0.465975
Te8735  Te  0.534461  0.664844  0.500000
Mo4371  Mo  0.538249  0.658265  0.482988
Te8736  Te  0.534461  0.664844  0.465975
Te8737  Te  0.523097  0.671423  0.500000
Mo4372  Mo  0.526885  0.678002  0.482988
Te8738  Te  0.523097  0.671423  0.465975
Te8739  Te  0.534461  0.678002  0.500000
Mo4373  Mo  0.538249  0.671423  0.482988
Te8740  Te  0.534461  0.678002  0.465975
Te8741  Te  0.545824  0.631950  0.500000
Mo4374  Mo  0.549612  0.638529  0.482988
Te8742  Te  0.545824  0.631950  0.465975
Te8743  Te  0.557188  0.638529  0.500000
Mo4375  Mo  0.560976  0.631950  0.482988
Te8744  Te  0.557188  0.638529  0.465975
Te8745  Te  0.545824  0.645107  0.500000
Mo4376  Mo  0.549612  0.651686  0.482988
Te8746  Te  0.545824  0.645107  0.465975
Te8747  Te  0.557188  0.651686  0.500000
Mo4377  Mo  0.560976  0.645107  0.482988
Te8748  Te  0.557188  0.651686  0.465975
Te8749  Te  0.545824  0.658265  0.500000
Mo4378  Mo  0.549612  0.664844  0.482988
Te8750  Te  0.545824  0.658265  0.465975
Te8751  Te  0.557188  0.664844  0.500000
Mo4379  Mo  0.560976  0.658265  0.482988
Te8752  Te  0.557188  0.664844  0.465975
Te8753  Te  0.545824  0.671423  0.500000
Mo4380  Mo  0.549612  0.678002  0.482988
Te8754  Te  0.545824  0.671423  0.465975
Te8755  Te  0.557188  0.678002  0.500000
Mo4381  Mo  0.560976  0.671423  0.482988
Te8756  Te  0.557188  0.678002  0.465975
Te8757  Te  0.568552  0.631950  0.500000
Mo4382  Mo  0.572339  0.638529  0.482988
Te8758  Te  0.568552  0.631950  0.465975
Te8759  Te  0.579915  0.638529  0.500000
Mo4383  Mo  0.583703  0.631950  0.482988
Te8760  Te  0.579915  0.638529  0.465975
Te8761  Te  0.568552  0.645107  0.500000
Mo4384  Mo  0.572339  0.651686  0.482988
Te8762  Te  0.568552  0.645107  0.465975
Te8763  Te  0.579915  0.651686  0.500000
Mo4385  Mo  0.583703  0.645107  0.482988
Te8764  Te  0.579915  0.651686  0.465975
Te8765  Te  0.568552  0.658265  0.500000
Mo4386  Mo  0.572339  0.664844  0.482988
Te8766  Te  0.568552  0.658265  0.465975
Te8767  Te  0.579915  0.664844  0.500000
Mo4387  Mo  0.583703  0.658265  0.482988
Te8768  Te  0.579915  0.664844  0.465975
Te8769  Te  0.568552  0.671423  0.500000
Mo4388  Mo  0.572339  0.678002  0.482988
Te8770  Te  0.568552  0.671423  0.465975
Te8771  Te  0.579915  0.678002  0.500000
Mo4389  Mo  0.583703  0.671423  0.482988
Te8772  Te  0.579915  0.678002  0.465975
Te8773  Te  0.591279  0.631950  0.500000
Mo4390  Mo  0.595067  0.638529  0.482988
Te8774  Te  0.591279  0.631950  0.465975
Te8775  Te  0.602642  0.638529  0.500000
Mo4391  Mo  0.606430  0.631950  0.482988
Te8776  Te  0.602642  0.638529  0.465975
Te8777  Te  0.591279  0.645107  0.500000
Mo4392  Mo  0.595067  0.651686  0.482988
Te8778  Te  0.591279  0.645107  0.465975
Te8779  Te  0.602642  0.651686  0.500000
Mo4393  Mo  0.606430  0.645107  0.482988
Te8780  Te  0.602642  0.651686  0.465975
Te8781  Te  0.591279  0.658265  0.500000
Mo4394  Mo  0.595067  0.664844  0.482988
Te8782  Te  0.591279  0.658265  0.465975
Te8783  Te  0.602642  0.664844  0.500000
Mo4395  Mo  0.606430  0.658265  0.482988
Te8784  Te  0.602642  0.664844  0.465975
Te8785  Te  0.591279  0.671423  0.500000
Mo4396  Mo  0.595067  0.678002  0.482988
Te8786  Te  0.591279  0.671423  0.465975
Te8787  Te  0.602642  0.678002  0.500000
Mo4397  Mo  0.606430  0.671423  0.482988
Te8788  Te  0.602642  0.678002  0.465975
Te8789  Te  0.614006  0.631950  0.500000
Mo4398  Mo  0.617794  0.638529  0.482988
Te8790  Te  0.614006  0.631950  0.465975
Te8791  Te  0.625370  0.638529  0.500000
Mo4399  Mo  0.629158  0.631950  0.482988
Te8792  Te  0.625370  0.638529  0.465975
Te8793  Te  0.614006  0.645107  0.500000
Mo4400  Mo  0.617794  0.651686  0.482988
Te8794  Te  0.614006  0.645107  0.465975
Te8795  Te  0.625370  0.651686  0.500000
Mo4401  Mo  0.629158  0.645107  0.482988
Te8796  Te  0.625370  0.651686  0.465975
Te8797  Te  0.614006  0.658265  0.500000
Mo4402  Mo  0.617794  0.664844  0.482988
Te8798  Te  0.614006  0.658265  0.465975
Te8799  Te  0.625370  0.664844  0.500000
Mo4403  Mo  0.629158  0.658265  0.482988
Te8800  Te  0.625370  0.664844  0.465975
Te8801  Te  0.614006  0.671423  0.500000
Mo4404  Mo  0.617794  0.678002  0.482988
Te8802  Te  0.614006  0.671423  0.465975
Te8803  Te  0.625370  0.678002  0.500000
Mo4405  Mo  0.629158  0.671423  0.482988
Te8804  Te  0.625370  0.678002  0.465975
Te8805  Te  0.636733  0.631950  0.500000
Mo4406  Mo  0.640521  0.638529  0.482988
Te8806  Te  0.636733  0.631950  0.465975
Te8807  Te  0.648097  0.638529  0.500000
Mo4407  Mo  0.651885  0.631950  0.482988
Te8808  Te  0.648097  0.638529  0.465975
Te8809  Te  0.636733  0.645107  0.500000
Mo4408  Mo  0.640521  0.651686  0.482988
Te8810  Te  0.636733  0.645107  0.465975
Te8811  Te  0.648097  0.651686  0.500000
Mo4409  Mo  0.651885  0.645107  0.482988
Te8812  Te  0.648097  0.651686  0.465975
Te8813  Te  0.636733  0.658265  0.500000
Mo4410  Mo  0.640521  0.664844  0.482988
Te8814  Te  0.636733  0.658265  0.465975
Te8815  Te  0.648097  0.664844  0.500000
Mo4411  Mo  0.651885  0.658265  0.482988
Te8816  Te  0.648097  0.664844  0.465975
Te8817  Te  0.636733  0.671423  0.500000
Mo4412  Mo  0.640521  0.678002  0.482988
Te8818  Te  0.636733  0.671423  0.465975
Te8819  Te  0.648097  0.678002  0.500000
Mo4413  Mo  0.651885  0.671423  0.482988
Te8820  Te  0.648097  0.678002  0.465975
Te8821  Te  0.659461  0.631950  0.500000
Mo4414  Mo  0.663248  0.638529  0.482988
Te8822  Te  0.659461  0.631950  0.465975
Te8823  Te  0.670824  0.638529  0.500000
Mo4415  Mo  0.674612  0.631950  0.482988
Te8824  Te  0.670824  0.638529  0.465975
Te8825  Te  0.659461  0.645107  0.500000
Mo4416  Mo  0.663248  0.651686  0.482988
Te8826  Te  0.659461  0.645107  0.465975
Te8827  Te  0.670824  0.651686  0.500000
Mo4417  Mo  0.674612  0.645107  0.482988
Te8828  Te  0.670824  0.651686  0.465975
Te8829  Te  0.659461  0.658265  0.500000
Mo4418  Mo  0.663248  0.664844  0.482988
Te8830  Te  0.659461  0.658265  0.465975
Te8831  Te  0.670824  0.664844  0.500000
Mo4419  Mo  0.674612  0.658265  0.482988
Te8832  Te  0.670824  0.664844  0.465975
Te8833  Te  0.659461  0.671423  0.500000
Mo4420  Mo  0.663248  0.678002  0.482988
Te8834  Te  0.659461  0.671423  0.465975
Te8835  Te  0.670824  0.678002  0.500000
Mo4421  Mo  0.674612  0.671423  0.482988
Te8836  Te  0.670824  0.678002  0.465975
Te8837  Te  0.682188  0.631950  0.500000
Mo4422  Mo  0.685976  0.638529  0.482988
Te8838  Te  0.682188  0.631950  0.465975
Te8839  Te  0.693551  0.638529  0.500000
Mo4423  Mo  0.697339  0.631950  0.482988
Te8840  Te  0.693551  0.638529  0.465975
Te8841  Te  0.682188  0.645107  0.500000
Mo4424  Mo  0.685976  0.651686  0.482988
Te8842  Te  0.682188  0.645107  0.465975
Te8843  Te  0.693551  0.651686  0.500000
Mo4425  Mo  0.697339  0.645107  0.482988
Te8844  Te  0.693551  0.651686  0.465975
Te8845  Te  0.682188  0.658265  0.500000
Mo4426  Mo  0.685976  0.664844  0.482988
Te8846  Te  0.682188  0.658265  0.465975
Te8847  Te  0.693551  0.664844  0.500000
Mo4427  Mo  0.697339  0.658265  0.482988
Te8848  Te  0.693551  0.664844  0.465975
Te8849  Te  0.682188  0.671423  0.500000
Mo4428  Mo  0.685976  0.678002  0.482988
Te8850  Te  0.682188  0.671423  0.465975
Te8851  Te  0.693551  0.678002  0.500000
Mo4429  Mo  0.697339  0.671423  0.482988
Te8852  Te  0.693551  0.678002  0.465975
Te8853  Te  0.704915  0.631950  0.500000
Mo4430  Mo  0.708703  0.638529  0.482988
Te8854  Te  0.704915  0.631950  0.465975
Te8855  Te  0.716279  0.638529  0.500000
Mo4431  Mo  0.720067  0.631950  0.482988
Te8856  Te  0.716279  0.638529  0.465975
Te8857  Te  0.704915  0.645107  0.500000
Mo4432  Mo  0.708703  0.651686  0.482988
Te8858  Te  0.704915  0.645107  0.465975
Te8859  Te  0.716279  0.651686  0.500000
Mo4433  Mo  0.720067  0.645107  0.482988
Te8860  Te  0.716279  0.651686  0.465975
Te8861  Te  0.704915  0.658265  0.500000
Mo4434  Mo  0.708703  0.664844  0.482988
Te8862  Te  0.704915  0.658265  0.465975
Te8863  Te  0.716279  0.664844  0.500000
Mo4435  Mo  0.720067  0.658265  0.482988
Te8864  Te  0.716279  0.664844  0.465975
Te8865  Te  0.704915  0.671423  0.500000
Mo4436  Mo  0.708703  0.678002  0.482988
Te8866  Te  0.704915  0.671423  0.465975
Te8867  Te  0.716279  0.678002  0.500000
Mo4437  Mo  0.720067  0.671423  0.482988
Te8868  Te  0.716279  0.678002  0.465975
Te8869  Te  0.727642  0.631950  0.500000
Mo4438  Mo  0.731430  0.638529  0.482988
Te8870  Te  0.727642  0.631950  0.465975
Te8871  Te  0.739006  0.638529  0.500000
Mo4439  Mo  0.742794  0.631950  0.482988
Te8872  Te  0.739006  0.638529  0.465975
Te8873  Te  0.727642  0.645107  0.500000
Mo4440  Mo  0.731430  0.651686  0.482988
Te8874  Te  0.727642  0.645107  0.465975
Te8875  Te  0.739006  0.651686  0.500000
Mo4441  Mo  0.742794  0.645107  0.482988
Te8876  Te  0.739006  0.651686  0.465975
Te8877  Te  0.727642  0.658265  0.500000
Mo4442  Mo  0.731430  0.664844  0.482988
Te8878  Te  0.727642  0.658265  0.465975
Te8879  Te  0.739006  0.664844  0.500000
Mo4443  Mo  0.742794  0.658265  0.482988
Te8880  Te  0.739006  0.664844  0.465975
Te8881  Te  0.727642  0.671423  0.500000
Mo4444  Mo  0.731430  0.678002  0.482988
Te8882  Te  0.727642  0.671423  0.465975
Te8883  Te  0.739006  0.678002  0.500000
Mo4445  Mo  0.742794  0.671423  0.482988
Te8884  Te  0.739006  0.678002  0.465975
Te8885  Te  0.750370  0.631950  0.500000
Mo4446  Mo  0.754158  0.638529  0.482988
Te8886  Te  0.750370  0.631950  0.465975
Te8887  Te  0.761733  0.638529  0.500000
Mo4447  Mo  0.765521  0.631950  0.482988
Te8888  Te  0.761733  0.638529  0.465975
Te8889  Te  0.750370  0.645107  0.500000
Mo4448  Mo  0.754158  0.651686  0.482988
Te8890  Te  0.750370  0.645107  0.465975
Te8891  Te  0.761733  0.651686  0.500000
Mo4449  Mo  0.765521  0.645107  0.482988
Te8892  Te  0.761733  0.651686  0.465975
Te8893  Te  0.750370  0.658265  0.500000
Mo4450  Mo  0.754158  0.664844  0.482988
Te8894  Te  0.750370  0.658265  0.465975
Te8895  Te  0.761733  0.664844  0.500000
Mo4451  Mo  0.765521  0.658265  0.482988
Te8896  Te  0.761733  0.664844  0.465975
Te8897  Te  0.750370  0.671423  0.500000
Mo4452  Mo  0.754158  0.678002  0.482988
Te8898  Te  0.750370  0.671423  0.465975
Te8899  Te  0.761733  0.678002  0.500000
Mo4453  Mo  0.765521  0.671423  0.482988
Te8900  Te  0.761733  0.678002  0.465975
Te8901  Te  0.773097  0.631950  0.500000
Mo4454  Mo  0.776885  0.638529  0.482988
Te8902  Te  0.773097  0.631950  0.465975
Te8903  Te  0.784461  0.638529  0.500000
Mo4455  Mo  0.788248  0.631950  0.482988
Te8904  Te  0.784461  0.638529  0.465975
Te8905  Te  0.773097  0.645107  0.500000
Mo4456  Mo  0.776885  0.651686  0.482988
Te8906  Te  0.773097  0.645107  0.465975
Te8907  Te  0.784461  0.651686  0.500000
Mo4457  Mo  0.788248  0.645107  0.482988
Te8908  Te  0.784461  0.651686  0.465975
Te8909  Te  0.773097  0.658265  0.500000
Mo4458  Mo  0.776885  0.664844  0.482988
Te8910  Te  0.773097  0.658265  0.465975
Te8911  Te  0.784461  0.664844  0.500000
Mo4459  Mo  0.788248  0.658265  0.482988
Te8912  Te  0.784461  0.664844  0.465975
Te8913  Te  0.773097  0.671423  0.500000
Mo4460  Mo  0.776885  0.678002  0.482988
Te8914  Te  0.773097  0.671423  0.465975
Te8915  Te  0.784461  0.678002  0.500000
Mo4461  Mo  0.788248  0.671423  0.482988
Te8916  Te  0.784461  0.678002  0.465975
Te8917  Te  0.795824  0.631950  0.500000
Mo4462  Mo  0.799612  0.638529  0.482988
Te8918  Te  0.795824  0.631950  0.465975
Te8919  Te  0.807188  0.638529  0.500000
Mo4463  Mo  0.810976  0.631950  0.482988
Te8920  Te  0.807188  0.638529  0.465975
Te8921  Te  0.795824  0.645107  0.500000
Mo4464  Mo  0.799612  0.651686  0.482988
Te8922  Te  0.795824  0.645107  0.465975
Te8923  Te  0.807188  0.651686  0.500000
Mo4465  Mo  0.810976  0.645107  0.482988
Te8924  Te  0.807188  0.651686  0.465975
Te8925  Te  0.795824  0.658265  0.500000
Mo4466  Mo  0.799612  0.664844  0.482988
Te8926  Te  0.795824  0.658265  0.465975
Te8927  Te  0.807188  0.664844  0.500000
Mo4467  Mo  0.810976  0.658265  0.482988
Te8928  Te  0.807188  0.664844  0.465975
Te8929  Te  0.795824  0.671423  0.500000
Mo4468  Mo  0.799612  0.678002  0.482988
Te8930  Te  0.795824  0.671423  0.465975
Te8931  Te  0.807188  0.678002  0.500000
Mo4469  Mo  0.810976  0.671423  0.482988
Te8932  Te  0.807188  0.678002  0.465975
Te8933  Te  0.818551  0.631950  0.500000
Mo4470  Mo  0.822339  0.638529  0.482988
Te8934  Te  0.818551  0.631950  0.465975
Te8935  Te  0.829915  0.638529  0.500000
Mo4471  Mo  0.833703  0.631950  0.482988
Te8936  Te  0.829915  0.638529  0.465975
Te8937  Te  0.818551  0.645107  0.500000
Mo4472  Mo  0.822339  0.651686  0.482988
Te8938  Te  0.818551  0.645107  0.465975
Te8939  Te  0.829915  0.651686  0.500000
Mo4473  Mo  0.833703  0.645107  0.482988
Te8940  Te  0.829915  0.651686  0.465975
Te8941  Te  0.818551  0.658265  0.500000
Mo4474  Mo  0.822339  0.664844  0.482988
Te8942  Te  0.818551  0.658265  0.465975
Te8943  Te  0.829915  0.664844  0.500000
Mo4475  Mo  0.833703  0.658265  0.482988
Te8944  Te  0.829915  0.664844  0.465975
Te8945  Te  0.818551  0.671423  0.500000
Mo4476  Mo  0.822339  0.678002  0.482988
Te8946  Te  0.818551  0.671423  0.465975
Te8947  Te  0.829915  0.678002  0.500000
Mo4477  Mo  0.833703  0.671423  0.482988
Te8948  Te  0.829915  0.678002  0.465975
Te8949  Te  0.841279  0.631950  0.500000
Mo4478  Mo  0.845067  0.638529  0.482988
Te8950  Te  0.841279  0.631950  0.465975
Te8951  Te  0.852642  0.638529  0.500000
Mo4479  Mo  0.856430  0.631950  0.482988
Te8952  Te  0.852642  0.638529  0.465975
Te8953  Te  0.841279  0.645107  0.500000
Mo4480  Mo  0.845067  0.651686  0.482988
Te8954  Te  0.841279  0.645107  0.465975
Te8955  Te  0.852642  0.651686  0.500000
Mo4481  Mo  0.856430  0.645107  0.482988
Te8956  Te  0.852642  0.651686  0.465975
Te8957  Te  0.841279  0.658265  0.500000
Mo4482  Mo  0.845067  0.664844  0.482988
Te8958  Te  0.841279  0.658265  0.465975
Te8959  Te  0.852642  0.664844  0.500000
Mo4483  Mo  0.856430  0.658265  0.482988
Te8960  Te  0.852642  0.664844  0.465975
Te8961  Te  0.841279  0.671423  0.500000
Mo4484  Mo  0.845067  0.678002  0.482988
Te8962  Te  0.841279  0.671423  0.465975
Te8963  Te  0.852642  0.678002  0.500000
Mo4485  Mo  0.856430  0.671423  0.482988
Te8964  Te  0.852642  0.678002  0.465975
Te8965  Te  0.864006  0.631950  0.500000
Mo4486  Mo  0.867794  0.638529  0.482988
Te8966  Te  0.864006  0.631950  0.465975
Te8967  Te  0.875370  0.638529  0.500000
Mo4487  Mo  0.879158  0.631950  0.482988
Te8968  Te  0.875370  0.638529  0.465975
Te8969  Te  0.864006  0.645107  0.500000
Mo4488  Mo  0.867794  0.651686  0.482988
Te8970  Te  0.864006  0.645107  0.465975
Te8971  Te  0.875370  0.651686  0.500000
Mo4489  Mo  0.879158  0.645107  0.482988
Te8972  Te  0.875370  0.651686  0.465975
Te8973  Te  0.864006  0.658265  0.500000
Mo4490  Mo  0.867794  0.664844  0.482988
Te8974  Te  0.864006  0.658265  0.465975
Te8975  Te  0.875370  0.664844  0.500000
Mo4491  Mo  0.879158  0.658265  0.482988
Te8976  Te  0.875370  0.664844  0.465975
Te8977  Te  0.864006  0.671423  0.500000
Mo4492  Mo  0.867794  0.678002  0.482988
Te8978  Te  0.864006  0.671423  0.465975
Te8979  Te  0.875370  0.678002  0.500000
Mo4493  Mo  0.879158  0.671423  0.482988
Te8980  Te  0.875370  0.678002  0.465975
Te8981  Te  0.886733  0.631950  0.500000
Mo4494  Mo  0.890521  0.638529  0.482988
Te8982  Te  0.886733  0.631950  0.465975
Te8983  Te  0.898097  0.638529  0.500000
Mo4495  Mo  0.901885  0.631950  0.482988
Te8984  Te  0.898097  0.638529  0.465975
Te8985  Te  0.886733  0.645107  0.500000
Mo4496  Mo  0.890521  0.651686  0.482988
Te8986  Te  0.886733  0.645107  0.465975
Te8987  Te  0.898097  0.651686  0.500000
Mo4497  Mo  0.901885  0.645107  0.482988
Te8988  Te  0.898097  0.651686  0.465975
Te8989  Te  0.886733  0.658265  0.500000
Mo4498  Mo  0.890521  0.664844  0.482988
Te8990  Te  0.886733  0.658265  0.465975
Te8991  Te  0.898097  0.664844  0.500000
Mo4499  Mo  0.901885  0.658265  0.482988
Te8992  Te  0.898097  0.664844  0.465975
Te8993  Te  0.886733  0.671423  0.500000
Mo4500  Mo  0.890521  0.678002  0.482988
Te8994  Te  0.886733  0.671423  0.465975
Te8995  Te  0.898097  0.678002  0.500000
Mo4501  Mo  0.901885  0.671423  0.482988
Te8996  Te  0.898097  0.678002  0.465975
Te8997  Te  0.909461  0.631950  0.500000
Mo4502  Mo  0.913248  0.638529  0.482988
Te8998  Te  0.909461  0.631950  0.465975
Te8999  Te  0.920824  0.638529  0.500000
Mo4503  Mo  0.924612  0.631950  0.482988
Te9000  Te  0.920824  0.638529  0.465975
Te9001  Te  0.909461  0.645107  0.500000
Mo4504  Mo  0.913248  0.651686  0.482988
Te9002  Te  0.909461  0.645107  0.465975
Te9003  Te  0.920824  0.651686  0.500000
Mo4505  Mo  0.924612  0.645107  0.482988
Te9004  Te  0.920824  0.651686  0.465975
Te9005  Te  0.909461  0.658265  0.500000
Mo4506  Mo  0.913248  0.664844  0.482988
Te9006  Te  0.909461  0.658265  0.465975
Te9007  Te  0.920824  0.664844  0.500000
Mo4507  Mo  0.924612  0.658265  0.482988
Te9008  Te  0.920824  0.664844  0.465975
Te9009  Te  0.909461  0.671423  0.500000
Mo4508  Mo  0.913248  0.678002  0.482988
Te9010  Te  0.909461  0.671423  0.465975
Te9011  Te  0.920824  0.678002  0.500000
Mo4509  Mo  0.924612  0.671423  0.482988
Te9012  Te  0.920824  0.678002  0.465975
Te9013  Te  0.932188  0.631950  0.500000
Mo4510  Mo  0.935976  0.638529  0.482988
Te9014  Te  0.932188  0.631950  0.465975
Te9015  Te  0.943552  0.638529  0.500000
Mo4511  Mo  0.947339  0.631950  0.482988
Te9016  Te  0.943552  0.638529  0.465975
Te9017  Te  0.932188  0.645107  0.500000
Mo4512  Mo  0.935976  0.651686  0.482988
Te9018  Te  0.932188  0.645107  0.465975
Te9019  Te  0.943552  0.651686  0.500000
Mo4513  Mo  0.947339  0.645107  0.482988
Te9020  Te  0.943552  0.651686  0.465975
Te9021  Te  0.932188  0.658265  0.500000
Mo4514  Mo  0.935976  0.664844  0.482988
Te9022  Te  0.932188  0.658265  0.465975
Te9023  Te  0.943552  0.664844  0.500000
Mo4515  Mo  0.947339  0.658265  0.482988
Te9024  Te  0.943552  0.664844  0.465975
Te9025  Te  0.932188  0.671423  0.500000
Mo4516  Mo  0.935976  0.678002  0.482988
Te9026  Te  0.932188  0.671423  0.465975
Te9027  Te  0.943552  0.678002  0.500000
Mo4517  Mo  0.947339  0.671423  0.482988
Te9028  Te  0.943552  0.678002  0.465975
Te9029  Te  0.954915  0.631950  0.500000
Mo4518  Mo  0.958703  0.638529  0.482988
Te9030  Te  0.954915  0.631950  0.465975
Te9031  Te  0.966279  0.638529  0.500000
Mo4519  Mo  0.970067  0.631950  0.482988
Te9032  Te  0.966279  0.638529  0.465975
Te9033  Te  0.954915  0.645107  0.500000
Mo4520  Mo  0.958703  0.651686  0.482988
Te9034  Te  0.954915  0.645107  0.465975
Te9035  Te  0.966279  0.651686  0.500000
Mo4521  Mo  0.970067  0.645107  0.482988
Te9036  Te  0.966279  0.651686  0.465975
Te9037  Te  0.954915  0.658265  0.500000
Mo4522  Mo  0.958703  0.664844  0.482988
Te9038  Te  0.954915  0.658265  0.465975
Te9039  Te  0.966279  0.664844  0.500000
Mo4523  Mo  0.970067  0.658265  0.482988
Te9040  Te  0.966279  0.664844  0.465975
Te9041  Te  0.954915  0.671423  0.500000
Mo4524  Mo  0.958703  0.678002  0.482988
Te9042  Te  0.954915  0.671423  0.465975
Te9043  Te  0.966279  0.678002  0.500000
Mo4525  Mo  0.970067  0.671423  0.482988
Te9044  Te  0.966279  0.678002  0.465975
Te9045  Te  0.977642  0.631950  0.500000
Mo4526  Mo  0.981430  0.638529  0.482988
Te9046  Te  0.977642  0.631950  0.465975
Te9047  Te  0.989006  0.638529  0.500000
Mo4527  Mo  0.992794  0.631950  0.482988
Te9048  Te  0.989006  0.638529  0.465975
Te9049  Te  0.977642  0.645107  0.500000
Mo4528  Mo  0.981430  0.651686  0.482988
Te9050  Te  0.977642  0.645107  0.465975
Te9051  Te  0.989006  0.651686  0.500000
Mo4529  Mo  0.992794  0.645107  0.482988
Te9052  Te  0.989006  0.651686  0.465975
Te9053  Te  0.977642  0.658265  0.500000
Mo4530  Mo  0.981430  0.664844  0.482988
Te9054  Te  0.977642  0.658265  0.465975
Te9055  Te  0.989006  0.664844  0.500000
Mo4531  Mo  0.992794  0.658265  0.482988
Te9056  Te  0.989006  0.664844  0.465975
Te9057  Te  0.977642  0.671423  0.500000
Mo4532  Mo  0.981430  0.678002  0.482988
Te9058  Te  0.977642  0.671423  0.465975
Te9059  Te  0.989006  0.678002  0.500000
Mo4533  Mo  0.992794  0.671423  0.482988
Te9060  Te  0.989006  0.678002  0.465975
Te9061  Te  0.000370  0.684581  0.500000
Mo4534  Mo  0.004158  0.691160  0.482988
Te9062  Te  0.000370  0.684581  0.465975
Te9063  Te  0.011733  0.691160  0.500000
Mo4535  Mo  0.015521  0.684581  0.482988
Te9064  Te  0.011733  0.691160  0.465975
Te9065  Te  0.000370  0.697739  0.500000
Mo4536  Mo  0.004158  0.704318  0.482988
Te9066  Te  0.000370  0.697739  0.465975
Te9067  Te  0.011733  0.704318  0.500000
Mo4537  Mo  0.015521  0.697739  0.482988
Te9068  Te  0.011733  0.704318  0.465975
Te9069  Te  0.000370  0.710897  0.500000
Mo4538  Mo  0.004158  0.717476  0.482988
Te9070  Te  0.000370  0.710897  0.465975
Te9071  Te  0.011733  0.717476  0.500000
Mo4539  Mo  0.015521  0.710897  0.482988
Te9072  Te  0.011733  0.717476  0.465975
Te9073  Te  0.000370  0.724055  0.500000
Mo4540  Mo  0.004158  0.730634  0.482988
Te9074  Te  0.000370  0.724055  0.465975
Te9075  Te  0.011733  0.730634  0.500000
Mo4541  Mo  0.015521  0.724055  0.482988
Te9076  Te  0.011733  0.730634  0.465975
Te9077  Te  0.023097  0.684581  0.500000
Mo4542  Mo  0.026885  0.691160  0.482988
Te9078  Te  0.023097  0.684581  0.465975
Te9079  Te  0.034461  0.691160  0.500000
Mo4543  Mo  0.038249  0.684581  0.482988
Te9080  Te  0.034461  0.691160  0.465975
Te9081  Te  0.023097  0.697739  0.500000
Mo4544  Mo  0.026885  0.704318  0.482988
Te9082  Te  0.023097  0.697739  0.465975
Te9083  Te  0.034461  0.704318  0.500000
Mo4545  Mo  0.038249  0.697739  0.482988
Te9084  Te  0.034461  0.704318  0.465975
Te9085  Te  0.023097  0.710897  0.500000
Mo4546  Mo  0.026885  0.717476  0.482988
Te9086  Te  0.023097  0.710897  0.465975
Te9087  Te  0.034461  0.717476  0.500000
Mo4547  Mo  0.038249  0.710897  0.482988
Te9088  Te  0.034461  0.717476  0.465975
Te9089  Te  0.023097  0.724055  0.500000
Mo4548  Mo  0.026885  0.730634  0.482988
Te9090  Te  0.023097  0.724055  0.465975
Te9091  Te  0.034461  0.730634  0.500000
Mo4549  Mo  0.038249  0.724055  0.482988
Te9092  Te  0.034461  0.730634  0.465975
Te9093  Te  0.045824  0.684581  0.500000
Mo4550  Mo  0.049612  0.691160  0.482988
Te9094  Te  0.045824  0.684581  0.465975
Te9095  Te  0.057188  0.691160  0.500000
Mo4551  Mo  0.060976  0.684581  0.482988
Te9096  Te  0.057188  0.691160  0.465975
Te9097  Te  0.045824  0.697739  0.500000
Mo4552  Mo  0.049612  0.704318  0.482988
Te9098  Te  0.045824  0.697739  0.465975
Te9099  Te  0.057188  0.704318  0.500000
Mo4553  Mo  0.060976  0.697739  0.482988
Te9100  Te  0.057188  0.704318  0.465975
Te9101  Te  0.045824  0.710897  0.500000
Mo4554  Mo  0.049612  0.717476  0.482988
Te9102  Te  0.045824  0.710897  0.465975
Te9103  Te  0.057188  0.717476  0.500000
Mo4555  Mo  0.060976  0.710897  0.482988
Te9104  Te  0.057188  0.717476  0.465975
Te9105  Te  0.045824  0.724055  0.500000
Mo4556  Mo  0.049612  0.730634  0.482988
Te9106  Te  0.045824  0.724055  0.465975
Te9107  Te  0.057188  0.730634  0.500000
Mo4557  Mo  0.060976  0.724055  0.482988
Te9108  Te  0.057188  0.730634  0.465975
Te9109  Te  0.068552  0.684581  0.500000
Mo4558  Mo  0.072339  0.691160  0.482988
Te9110  Te  0.068552  0.684581  0.465975
Te9111  Te  0.079915  0.691160  0.500000
Mo4559  Mo  0.083703  0.684581  0.482988
Te9112  Te  0.079915  0.691160  0.465975
Te9113  Te  0.068552  0.697739  0.500000
Mo4560  Mo  0.072339  0.704318  0.482988
Te9114  Te  0.068552  0.697739  0.465975
Te9115  Te  0.079915  0.704318  0.500000
Mo4561  Mo  0.083703  0.697739  0.482988
Te9116  Te  0.079915  0.704318  0.465975
Te9117  Te  0.068552  0.710897  0.500000
Mo4562  Mo  0.072339  0.717476  0.482988
Te9118  Te  0.068552  0.710897  0.465975
Te9119  Te  0.079915  0.717476  0.500000
Mo4563  Mo  0.083703  0.710897  0.482988
Te9120  Te  0.079915  0.717476  0.465975
Te9121  Te  0.068552  0.724055  0.500000
Mo4564  Mo  0.072339  0.730634  0.482988
Te9122  Te  0.068552  0.724055  0.465975
Te9123  Te  0.079915  0.730634  0.500000
Mo4565  Mo  0.083703  0.724055  0.482988
Te9124  Te  0.079915  0.730634  0.465975
Te9125  Te  0.091279  0.684581  0.500000
Mo4566  Mo  0.095067  0.691160  0.482988
Te9126  Te  0.091279  0.684581  0.465975
Te9127  Te  0.102642  0.691160  0.500000
Mo4567  Mo  0.106430  0.684581  0.482988
Te9128  Te  0.102642  0.691160  0.465975
Te9129  Te  0.091279  0.697739  0.500000
Mo4568  Mo  0.095067  0.704318  0.482988
Te9130  Te  0.091279  0.697739  0.465975
Te9131  Te  0.102642  0.704318  0.500000
Mo4569  Mo  0.106430  0.697739  0.482988
Te9132  Te  0.102642  0.704318  0.465975
Te9133  Te  0.091279  0.710897  0.500000
Mo4570  Mo  0.095067  0.717476  0.482988
Te9134  Te  0.091279  0.710897  0.465975
Te9135  Te  0.102642  0.717476  0.500000
Mo4571  Mo  0.106430  0.710897  0.482988
Te9136  Te  0.102642  0.717476  0.465975
Te9137  Te  0.091279  0.724055  0.500000
Mo4572  Mo  0.095067  0.730634  0.482988
Te9138  Te  0.091279  0.724055  0.465975
Te9139  Te  0.102642  0.730634  0.500000
Mo4573  Mo  0.106430  0.724055  0.482988
Te9140  Te  0.102642  0.730634  0.465975
Te9141  Te  0.114006  0.684581  0.500000
Mo4574  Mo  0.117794  0.691160  0.482988
Te9142  Te  0.114006  0.684581  0.465975
Te9143  Te  0.125370  0.691160  0.500000
Mo4575  Mo  0.129158  0.684581  0.482988
Te9144  Te  0.125370  0.691160  0.465975
Te9145  Te  0.114006  0.697739  0.500000
Mo4576  Mo  0.117794  0.704318  0.482988
Te9146  Te  0.114006  0.697739  0.465975
Te9147  Te  0.125370  0.704318  0.500000
Mo4577  Mo  0.129158  0.697739  0.482988
Te9148  Te  0.125370  0.704318  0.465975
Te9149  Te  0.114006  0.710897  0.500000
Mo4578  Mo  0.117794  0.717476  0.482988
Te9150  Te  0.114006  0.710897  0.465975
Te9151  Te  0.125370  0.717476  0.500000
Mo4579  Mo  0.129158  0.710897  0.482988
Te9152  Te  0.125370  0.717476  0.465975
Te9153  Te  0.114006  0.724055  0.500000
Mo4580  Mo  0.117794  0.730634  0.482988
Te9154  Te  0.114006  0.724055  0.465975
Te9155  Te  0.125370  0.730634  0.500000
Mo4581  Mo  0.129158  0.724055  0.482988
Te9156  Te  0.125370  0.730634  0.465975
Te9157  Te  0.136733  0.684581  0.500000
Mo4582  Mo  0.140521  0.691160  0.482988
Te9158  Te  0.136733  0.684581  0.465975
Te9159  Te  0.148097  0.691160  0.500000
Mo4583  Mo  0.151885  0.684581  0.482988
Te9160  Te  0.148097  0.691160  0.465975
Te9161  Te  0.136733  0.697739  0.500000
Mo4584  Mo  0.140521  0.704318  0.482988
Te9162  Te  0.136733  0.697739  0.465975
Te9163  Te  0.148097  0.704318  0.500000
Mo4585  Mo  0.151885  0.697739  0.482988
Te9164  Te  0.148097  0.704318  0.465975
Te9165  Te  0.136733  0.710897  0.500000
Mo4586  Mo  0.140521  0.717476  0.482988
Te9166  Te  0.136733  0.710897  0.465975
Te9167  Te  0.148097  0.717476  0.500000
Mo4587  Mo  0.151885  0.710897  0.482988
Te9168  Te  0.148097  0.717476  0.465975
Te9169  Te  0.136733  0.724055  0.500000
Mo4588  Mo  0.140521  0.730634  0.482988
Te9170  Te  0.136733  0.724055  0.465975
Te9171  Te  0.148097  0.730634  0.500000
Mo4589  Mo  0.151885  0.724055  0.482988
Te9172  Te  0.148097  0.730634  0.465975
Te9173  Te  0.159461  0.684581  0.500000
Mo4590  Mo  0.163248  0.691160  0.482988
Te9174  Te  0.159461  0.684581  0.465975
Te9175  Te  0.170824  0.691160  0.500000
Mo4591  Mo  0.174612  0.684581  0.482988
Te9176  Te  0.170824  0.691160  0.465975
Te9177  Te  0.159461  0.697739  0.500000
Mo4592  Mo  0.163248  0.704318  0.482988
Te9178  Te  0.159461  0.697739  0.465975
Te9179  Te  0.170824  0.704318  0.500000
Mo4593  Mo  0.174612  0.697739  0.482988
Te9180  Te  0.170824  0.704318  0.465975
Te9181  Te  0.159461  0.710897  0.500000
Mo4594  Mo  0.163248  0.717476  0.482988
Te9182  Te  0.159461  0.710897  0.465975
Te9183  Te  0.170824  0.717476  0.500000
Mo4595  Mo  0.174612  0.710897  0.482988
Te9184  Te  0.170824  0.717476  0.465975
Te9185  Te  0.159461  0.724055  0.500000
Mo4596  Mo  0.163248  0.730634  0.482988
Te9186  Te  0.159461  0.724055  0.465975
Te9187  Te  0.170824  0.730634  0.500000
Mo4597  Mo  0.174612  0.724055  0.482988
Te9188  Te  0.170824  0.730634  0.465975
Te9189  Te  0.182188  0.684581  0.500000
Mo4598  Mo  0.185976  0.691160  0.482988
Te9190  Te  0.182188  0.684581  0.465975
Te9191  Te  0.193551  0.691160  0.500000
Mo4599  Mo  0.197339  0.684581  0.482988
Te9192  Te  0.193551  0.691160  0.465975
Te9193  Te  0.182188  0.697739  0.500000
Mo4600  Mo  0.185976  0.704318  0.482988
Te9194  Te  0.182188  0.697739  0.465975
Te9195  Te  0.193551  0.704318  0.500000
Mo4601  Mo  0.197339  0.697739  0.482988
Te9196  Te  0.193551  0.704318  0.465975
Te9197  Te  0.182188  0.710897  0.500000
Mo4602  Mo  0.185976  0.717476  0.482988
Te9198  Te  0.182188  0.710897  0.465975
Te9199  Te  0.193551  0.717476  0.500000
Mo4603  Mo  0.197339  0.710897  0.482988
Te9200  Te  0.193551  0.717476  0.465975
Te9201  Te  0.182188  0.724055  0.500000
Mo4604  Mo  0.185976  0.730634  0.482988
Te9202  Te  0.182188  0.724055  0.465975
Te9203  Te  0.193551  0.730634  0.500000
Mo4605  Mo  0.197339  0.724055  0.482988
Te9204  Te  0.193551  0.730634  0.465975
Te9205  Te  0.204915  0.684581  0.500000
Mo4606  Mo  0.208703  0.691160  0.482988
Te9206  Te  0.204915  0.684581  0.465975
Te9207  Te  0.216279  0.691160  0.500000
Mo4607  Mo  0.220067  0.684581  0.482988
Te9208  Te  0.216279  0.691160  0.465975
Te9209  Te  0.204915  0.697739  0.500000
Mo4608  Mo  0.208703  0.704318  0.482988
Te9210  Te  0.204915  0.697739  0.465975
Te9211  Te  0.216279  0.704318  0.500000
Mo4609  Mo  0.220067  0.697739  0.482988
Te9212  Te  0.216279  0.704318  0.465975
Te9213  Te  0.204915  0.710897  0.500000
Mo4610  Mo  0.208703  0.717476  0.482988
Te9214  Te  0.204915  0.710897  0.465975
Te9215  Te  0.216279  0.717476  0.500000
Mo4611  Mo  0.220067  0.710897  0.482988
Te9216  Te  0.216279  0.717476  0.465975
Te9217  Te  0.204915  0.724055  0.500000
Mo4612  Mo  0.208703  0.730634  0.482988
Te9218  Te  0.204915  0.724055  0.465975
Te9219  Te  0.216279  0.730634  0.500000
Mo4613  Mo  0.220067  0.724055  0.482988
Te9220  Te  0.216279  0.730634  0.465975
Te9221  Te  0.227642  0.684581  0.500000
Mo4614  Mo  0.231430  0.691160  0.482988
Te9222  Te  0.227642  0.684581  0.465975
Te9223  Te  0.239006  0.691160  0.500000
Mo4615  Mo  0.242794  0.684581  0.482988
Te9224  Te  0.239006  0.691160  0.465975
Te9225  Te  0.227642  0.697739  0.500000
Mo4616  Mo  0.231430  0.704318  0.482988
Te9226  Te  0.227642  0.697739  0.465975
Te9227  Te  0.239006  0.704318  0.500000
Mo4617  Mo  0.242794  0.697739  0.482988
Te9228  Te  0.239006  0.704318  0.465975
Te9229  Te  0.227642  0.710897  0.500000
Mo4618  Mo  0.231430  0.717476  0.482988
Te9230  Te  0.227642  0.710897  0.465975
Te9231  Te  0.239006  0.717476  0.500000
Mo4619  Mo  0.242794  0.710897  0.482988
Te9232  Te  0.239006  0.717476  0.465975
Te9233  Te  0.227642  0.724055  0.500000
Mo4620  Mo  0.231430  0.730634  0.482988
Te9234  Te  0.227642  0.724055  0.465975
Te9235  Te  0.239006  0.730634  0.500000
Mo4621  Mo  0.242794  0.724055  0.482988
Te9236  Te  0.239006  0.730634  0.465975
Te9237  Te  0.250370  0.684581  0.500000
Mo4622  Mo  0.254158  0.691160  0.482988
Te9238  Te  0.250370  0.684581  0.465975
Te9239  Te  0.261733  0.691160  0.500000
Mo4623  Mo  0.265521  0.684581  0.482988
Te9240  Te  0.261733  0.691160  0.465975
Te9241  Te  0.250370  0.697739  0.500000
Mo4624  Mo  0.254158  0.704318  0.482988
Te9242  Te  0.250370  0.697739  0.465975
Te9243  Te  0.261733  0.704318  0.500000
Mo4625  Mo  0.265521  0.697739  0.482988
Te9244  Te  0.261733  0.704318  0.465975
Te9245  Te  0.250370  0.710897  0.500000
Mo4626  Mo  0.254158  0.717476  0.482988
Te9246  Te  0.250370  0.710897  0.465975
Te9247  Te  0.261733  0.717476  0.500000
Mo4627  Mo  0.265521  0.710897  0.482988
Te9248  Te  0.261733  0.717476  0.465975
Te9249  Te  0.250370  0.724055  0.500000
Mo4628  Mo  0.254158  0.730634  0.482988
Te9250  Te  0.250370  0.724055  0.465975
Te9251  Te  0.261733  0.730634  0.500000
Mo4629  Mo  0.265521  0.724055  0.482988
Te9252  Te  0.261733  0.730634  0.465975
Te9253  Te  0.273097  0.684581  0.500000
Mo4630  Mo  0.276885  0.691160  0.482988
Te9254  Te  0.273097  0.684581  0.465975
Te9255  Te  0.284461  0.691160  0.500000
Mo4631  Mo  0.288248  0.684581  0.482988
Te9256  Te  0.284461  0.691160  0.465975
Te9257  Te  0.273097  0.697739  0.500000
Mo4632  Mo  0.276885  0.704318  0.482988
Te9258  Te  0.273097  0.697739  0.465975
Te9259  Te  0.284461  0.704318  0.500000
Mo4633  Mo  0.288248  0.697739  0.482988
Te9260  Te  0.284461  0.704318  0.465975
Te9261  Te  0.273097  0.710897  0.500000
Mo4634  Mo  0.276885  0.717476  0.482988
Te9262  Te  0.273097  0.710897  0.465975
Te9263  Te  0.284461  0.717476  0.500000
Mo4635  Mo  0.288248  0.710897  0.482988
Te9264  Te  0.284461  0.717476  0.465975
Te9265  Te  0.273097  0.724055  0.500000
Mo4636  Mo  0.276885  0.730634  0.482988
Te9266  Te  0.273097  0.724055  0.465975
Te9267  Te  0.284461  0.730634  0.500000
Mo4637  Mo  0.288248  0.724055  0.482988
Te9268  Te  0.284461  0.730634  0.465975
Te9269  Te  0.295824  0.684581  0.500000
Mo4638  Mo  0.299612  0.691160  0.482988
Te9270  Te  0.295824  0.684581  0.465975
Te9271  Te  0.307188  0.691160  0.500000
Mo4639  Mo  0.310976  0.684581  0.482988
Te9272  Te  0.307188  0.691160  0.465975
Te9273  Te  0.295824  0.697739  0.500000
Mo4640  Mo  0.299612  0.704318  0.482988
Te9274  Te  0.295824  0.697739  0.465975
Te9275  Te  0.307188  0.704318  0.500000
Mo4641  Mo  0.310976  0.697739  0.482988
Te9276  Te  0.307188  0.704318  0.465975
Te9277  Te  0.295824  0.710897  0.500000
Mo4642  Mo  0.299612  0.717476  0.482988
Te9278  Te  0.295824  0.710897  0.465975
Te9279  Te  0.307188  0.717476  0.500000
Mo4643  Mo  0.310976  0.710897  0.482988
Te9280  Te  0.307188  0.717476  0.465975
Te9281  Te  0.295824  0.724055  0.500000
Mo4644  Mo  0.299612  0.730634  0.482988
Te9282  Te  0.295824  0.724055  0.465975
Te9283  Te  0.307188  0.730634  0.500000
Mo4645  Mo  0.310976  0.724055  0.482988
Te9284  Te  0.307188  0.730634  0.465975
Te9285  Te  0.318551  0.684581  0.500000
Mo4646  Mo  0.322339  0.691160  0.482988
Te9286  Te  0.318551  0.684581  0.465975
Te9287  Te  0.329915  0.691160  0.500000
Mo4647  Mo  0.333703  0.684581  0.482988
Te9288  Te  0.329915  0.691160  0.465975
Te9289  Te  0.318551  0.697739  0.500000
Mo4648  Mo  0.322339  0.704318  0.482988
Te9290  Te  0.318551  0.697739  0.465975
Te9291  Te  0.329915  0.704318  0.500000
Mo4649  Mo  0.333703  0.697739  0.482988
Te9292  Te  0.329915  0.704318  0.465975
Te9293  Te  0.318551  0.710897  0.500000
Mo4650  Mo  0.322339  0.717476  0.482988
Te9294  Te  0.318551  0.710897  0.465975
Te9295  Te  0.329915  0.717476  0.500000
Mo4651  Mo  0.333703  0.710897  0.482988
Te9296  Te  0.329915  0.717476  0.465975
Te9297  Te  0.318551  0.724055  0.500000
Mo4652  Mo  0.322339  0.730634  0.482988
Te9298  Te  0.318551  0.724055  0.465975
Te9299  Te  0.329915  0.730634  0.500000
Mo4653  Mo  0.333703  0.724055  0.482988
Te9300  Te  0.329915  0.730634  0.465975
Te9301  Te  0.341279  0.684581  0.500000
Mo4654  Mo  0.345067  0.691160  0.482988
Te9302  Te  0.341279  0.684581  0.465975
Te9303  Te  0.352642  0.691160  0.500000
Mo4655  Mo  0.356430  0.684581  0.482988
Te9304  Te  0.352642  0.691160  0.465975
Te9305  Te  0.341279  0.697739  0.500000
Mo4656  Mo  0.345067  0.704318  0.482988
Te9306  Te  0.341279  0.697739  0.465975
Te9307  Te  0.352642  0.704318  0.500000
Mo4657  Mo  0.356430  0.697739  0.482988
Te9308  Te  0.352642  0.704318  0.465975
Te9309  Te  0.341279  0.710897  0.500000
Mo4658  Mo  0.345067  0.717476  0.482988
Te9310  Te  0.341279  0.710897  0.465975
Te9311  Te  0.352642  0.717476  0.500000
Mo4659  Mo  0.356430  0.710897  0.482988
Te9312  Te  0.352642  0.717476  0.465975
Te9313  Te  0.341279  0.724055  0.500000
Mo4660  Mo  0.345067  0.730634  0.482988
Te9314  Te  0.341279  0.724055  0.465975
Te9315  Te  0.352642  0.730634  0.500000
Mo4661  Mo  0.356430  0.724055  0.482988
Te9316  Te  0.352642  0.730634  0.465975
Te9317  Te  0.364006  0.684581  0.500000
Mo4662  Mo  0.367794  0.691160  0.482988
Te9318  Te  0.364006  0.684581  0.465975
Te9319  Te  0.375370  0.691160  0.500000
Mo4663  Mo  0.379158  0.684581  0.482988
Te9320  Te  0.375370  0.691160  0.465975
Te9321  Te  0.364006  0.697739  0.500000
Mo4664  Mo  0.367794  0.704318  0.482988
Te9322  Te  0.364006  0.697739  0.465975
Te9323  Te  0.375370  0.704318  0.500000
Mo4665  Mo  0.379158  0.697739  0.482988
Te9324  Te  0.375370  0.704318  0.465975
Te9325  Te  0.364006  0.710897  0.500000
Mo4666  Mo  0.367794  0.717476  0.482988
Te9326  Te  0.364006  0.710897  0.465975
Te9327  Te  0.375370  0.717476  0.500000
Mo4667  Mo  0.379158  0.710897  0.482988
Te9328  Te  0.375370  0.717476  0.465975
Te9329  Te  0.364006  0.724055  0.500000
Mo4668  Mo  0.367794  0.730634  0.482988
Te9330  Te  0.364006  0.724055  0.465975
Te9331  Te  0.375370  0.730634  0.500000
Mo4669  Mo  0.379158  0.724055  0.482988
Te9332  Te  0.375370  0.730634  0.465975
Te9333  Te  0.386733  0.684581  0.500000
Mo4670  Mo  0.390521  0.691160  0.482988
Te9334  Te  0.386733  0.684581  0.465975
Te9335  Te  0.398097  0.691160  0.500000
Mo4671  Mo  0.401885  0.684581  0.482988
Te9336  Te  0.398097  0.691160  0.465975
Te9337  Te  0.386733  0.697739  0.500000
Mo4672  Mo  0.390521  0.704318  0.482988
Te9338  Te  0.386733  0.697739  0.465975
Te9339  Te  0.398097  0.704318  0.500000
Mo4673  Mo  0.401885  0.697739  0.482988
Te9340  Te  0.398097  0.704318  0.465975
Te9341  Te  0.386733  0.710897  0.500000
Mo4674  Mo  0.390521  0.717476  0.482988
Te9342  Te  0.386733  0.710897  0.465975
Te9343  Te  0.398097  0.717476  0.500000
Mo4675  Mo  0.401885  0.710897  0.482988
Te9344  Te  0.398097  0.717476  0.465975
Te9345  Te  0.386733  0.724055  0.500000
Mo4676  Mo  0.390521  0.730634  0.482988
Te9346  Te  0.386733  0.724055  0.465975
Te9347  Te  0.398097  0.730634  0.500000
Mo4677  Mo  0.401885  0.724055  0.482988
Te9348  Te  0.398097  0.730634  0.465975
Te9349  Te  0.409461  0.684581  0.500000
Mo4678  Mo  0.413248  0.691160  0.482988
Te9350  Te  0.409461  0.684581  0.465975
Te9351  Te  0.420824  0.691160  0.500000
Mo4679  Mo  0.424612  0.684581  0.482988
Te9352  Te  0.420824  0.691160  0.465975
Te9353  Te  0.409461  0.697739  0.500000
Mo4680  Mo  0.413248  0.704318  0.482988
Te9354  Te  0.409461  0.697739  0.465975
Te9355  Te  0.420824  0.704318  0.500000
Mo4681  Mo  0.424612  0.697739  0.482988
Te9356  Te  0.420824  0.704318  0.465975
Te9357  Te  0.409461  0.710897  0.500000
Mo4682  Mo  0.413248  0.717476  0.482988
Te9358  Te  0.409461  0.710897  0.465975
Te9359  Te  0.420824  0.717476  0.500000
Mo4683  Mo  0.424612  0.710897  0.482988
Te9360  Te  0.420824  0.717476  0.465975
Te9361  Te  0.409461  0.724055  0.500000
Mo4684  Mo  0.413248  0.730634  0.482988
Te9362  Te  0.409461  0.724055  0.465975
Te9363  Te  0.420824  0.730634  0.500000
Mo4685  Mo  0.424612  0.724055  0.482988
Te9364  Te  0.420824  0.730634  0.465975
Te9365  Te  0.432188  0.684581  0.500000
Mo4686  Mo  0.435976  0.691160  0.482988
Te9366  Te  0.432188  0.684581  0.465975
Te9367  Te  0.443552  0.691160  0.500000
Mo4687  Mo  0.447339  0.684581  0.482988
Te9368  Te  0.443552  0.691160  0.465975
Te9369  Te  0.432188  0.697739  0.500000
Mo4688  Mo  0.435976  0.704318  0.482988
Te9370  Te  0.432188  0.697739  0.465975
Te9371  Te  0.443552  0.704318  0.500000
Mo4689  Mo  0.447339  0.697739  0.482988
Te9372  Te  0.443552  0.704318  0.465975
Te9373  Te  0.432188  0.710897  0.500000
Mo4690  Mo  0.435976  0.717476  0.482988
Te9374  Te  0.432188  0.710897  0.465975
Te9375  Te  0.443552  0.717476  0.500000
Mo4691  Mo  0.447339  0.710897  0.482988
Te9376  Te  0.443552  0.717476  0.465975
Te9377  Te  0.432188  0.724055  0.500000
Mo4692  Mo  0.435976  0.730634  0.482988
Te9378  Te  0.432188  0.724055  0.465975
Te9379  Te  0.443552  0.730634  0.500000
Mo4693  Mo  0.447339  0.724055  0.482988
Te9380  Te  0.443552  0.730634  0.465975
Te9381  Te  0.454915  0.684581  0.500000
Mo4694  Mo  0.458703  0.691160  0.482988
Te9382  Te  0.454915  0.684581  0.465975
Te9383  Te  0.466279  0.691160  0.500000
Mo4695  Mo  0.470067  0.684581  0.482988
Te9384  Te  0.466279  0.691160  0.465975
Te9385  Te  0.454915  0.697739  0.500000
Mo4696  Mo  0.458703  0.704318  0.482988
Te9386  Te  0.454915  0.697739  0.465975
Te9387  Te  0.466279  0.704318  0.500000
Mo4697  Mo  0.470067  0.697739  0.482988
Te9388  Te  0.466279  0.704318  0.465975
Te9389  Te  0.454915  0.710897  0.500000
Mo4698  Mo  0.458703  0.717476  0.482988
Te9390  Te  0.454915  0.710897  0.465975
Te9391  Te  0.466279  0.717476  0.500000
Mo4699  Mo  0.470067  0.710897  0.482988
Te9392  Te  0.466279  0.717476  0.465975
Te9393  Te  0.454915  0.724055  0.500000
Mo4700  Mo  0.458703  0.730634  0.482988
Te9394  Te  0.454915  0.724055  0.465975
Te9395  Te  0.466279  0.730634  0.500000
Mo4701  Mo  0.470067  0.724055  0.482988
Te9396  Te  0.466279  0.730634  0.465975
Te9397  Te  0.477642  0.684581  0.500000
Mo4702  Mo  0.481430  0.691160  0.482988
Te9398  Te  0.477642  0.684581  0.465975
Te9399  Te  0.489006  0.691160  0.500000
Mo4703  Mo  0.492794  0.684581  0.482988
Te9400  Te  0.489006  0.691160  0.465975
Te9401  Te  0.477642  0.697739  0.500000
Mo4704  Mo  0.481430  0.704318  0.482988
Te9402  Te  0.477642  0.697739  0.465975
Te9403  Te  0.489006  0.704318  0.500000
Mo4705  Mo  0.492794  0.697739  0.482988
Te9404  Te  0.489006  0.704318  0.465975
Te9405  Te  0.477642  0.710897  0.500000
Mo4706  Mo  0.481430  0.717476  0.482988
Te9406  Te  0.477642  0.710897  0.465975
Te9407  Te  0.489006  0.717476  0.500000
Mo4707  Mo  0.492794  0.710897  0.482988
Te9408  Te  0.489006  0.717476  0.465975
Te9409  Te  0.477642  0.724055  0.500000
Mo4708  Mo  0.481430  0.730634  0.482988
Te9410  Te  0.477642  0.724055  0.465975
Te9411  Te  0.489006  0.730634  0.500000
Mo4709  Mo  0.492794  0.724055  0.482988
Te9412  Te  0.489006  0.730634  0.465975
Te9413  Te  0.500370  0.684581  0.500000
Mo4710  Mo  0.504158  0.691160  0.482988
Te9414  Te  0.500370  0.684581  0.465975
Te9415  Te  0.511733  0.691160  0.500000
Mo4711  Mo  0.515521  0.684581  0.482988
Te9416  Te  0.511733  0.691160  0.465975
Te9417  Te  0.500370  0.697739  0.500000
Mo4712  Mo  0.504158  0.704318  0.482988
Te9418  Te  0.500370  0.697739  0.465975
Te9419  Te  0.511733  0.704318  0.500000
Mo4713  Mo  0.515521  0.697739  0.482988
Te9420  Te  0.511733  0.704318  0.465975
Te9421  Te  0.500370  0.710897  0.500000
Mo4714  Mo  0.504158  0.717476  0.482988
Te9422  Te  0.500370  0.710897  0.465975
Te9423  Te  0.511733  0.717476  0.500000
Mo4715  Mo  0.515521  0.710897  0.482988
Te9424  Te  0.511733  0.717476  0.465975
Te9425  Te  0.500370  0.724055  0.500000
Mo4716  Mo  0.504158  0.730634  0.482988
Te9426  Te  0.500370  0.724055  0.465975
Te9427  Te  0.511733  0.730634  0.500000
Mo4717  Mo  0.515521  0.724055  0.482988
Te9428  Te  0.511733  0.730634  0.465975
Te9429  Te  0.523097  0.684581  0.500000
Mo4718  Mo  0.526885  0.691160  0.482988
Te9430  Te  0.523097  0.684581  0.465975
Te9431  Te  0.534461  0.691160  0.500000
Mo4719  Mo  0.538249  0.684581  0.482988
Te9432  Te  0.534461  0.691160  0.465975
Te9433  Te  0.523097  0.697739  0.500000
Mo4720  Mo  0.526885  0.704318  0.482988
Te9434  Te  0.523097  0.697739  0.465975
Te9435  Te  0.534461  0.704318  0.500000
Mo4721  Mo  0.538249  0.697739  0.482988
Te9436  Te  0.534461  0.704318  0.465975
Te9437  Te  0.523097  0.710897  0.500000
Mo4722  Mo  0.526885  0.717476  0.482988
Te9438  Te  0.523097  0.710897  0.465975
Te9439  Te  0.534461  0.717476  0.500000
Mo4723  Mo  0.538249  0.710897  0.482988
Te9440  Te  0.534461  0.717476  0.465975
Te9441  Te  0.523097  0.724055  0.500000
Mo4724  Mo  0.526885  0.730634  0.482988
Te9442  Te  0.523097  0.724055  0.465975
Te9443  Te  0.534461  0.730634  0.500000
Mo4725  Mo  0.538249  0.724055  0.482988
Te9444  Te  0.534461  0.730634  0.465975
Te9445  Te  0.545824  0.684581  0.500000
Mo4726  Mo  0.549612  0.691160  0.482988
Te9446  Te  0.545824  0.684581  0.465975
Te9447  Te  0.557188  0.691160  0.500000
Mo4727  Mo  0.560976  0.684581  0.482988
Te9448  Te  0.557188  0.691160  0.465975
Te9449  Te  0.545824  0.697739  0.500000
Mo4728  Mo  0.549612  0.704318  0.482988
Te9450  Te  0.545824  0.697739  0.465975
Te9451  Te  0.557188  0.704318  0.500000
Mo4729  Mo  0.560976  0.697739  0.482988
Te9452  Te  0.557188  0.704318  0.465975
Te9453  Te  0.545824  0.710897  0.500000
Mo4730  Mo  0.549612  0.717476  0.482988
Te9454  Te  0.545824  0.710897  0.465975
Te9455  Te  0.557188  0.717476  0.500000
Mo4731  Mo  0.560976  0.710897  0.482988
Te9456  Te  0.557188  0.717476  0.465975
Te9457  Te  0.545824  0.724055  0.500000
Mo4732  Mo  0.549612  0.730634  0.482988
Te9458  Te  0.545824  0.724055  0.465975
Te9459  Te  0.557188  0.730634  0.500000
Mo4733  Mo  0.560976  0.724055  0.482988
Te9460  Te  0.557188  0.730634  0.465975
Te9461  Te  0.568552  0.684581  0.500000
Mo4734  Mo  0.572339  0.691160  0.482988
Te9462  Te  0.568552  0.684581  0.465975
Te9463  Te  0.579915  0.691160  0.500000
Mo4735  Mo  0.583703  0.684581  0.482988
Te9464  Te  0.579915  0.691160  0.465975
Te9465  Te  0.568552  0.697739  0.500000
Mo4736  Mo  0.572339  0.704318  0.482988
Te9466  Te  0.568552  0.697739  0.465975
Te9467  Te  0.579915  0.704318  0.500000
Mo4737  Mo  0.583703  0.697739  0.482988
Te9468  Te  0.579915  0.704318  0.465975
Te9469  Te  0.568552  0.710897  0.500000
Mo4738  Mo  0.572339  0.717476  0.482988
Te9470  Te  0.568552  0.710897  0.465975
Te9471  Te  0.579915  0.717476  0.500000
Mo4739  Mo  0.583703  0.710897  0.482988
Te9472  Te  0.579915  0.717476  0.465975
Te9473  Te  0.568552  0.724055  0.500000
Mo4740  Mo  0.572339  0.730634  0.482988
Te9474  Te  0.568552  0.724055  0.465975
Te9475  Te  0.579915  0.730634  0.500000
Mo4741  Mo  0.583703  0.724055  0.482988
Te9476  Te  0.579915  0.730634  0.465975
Te9477  Te  0.591279  0.684581  0.500000
Mo4742  Mo  0.595067  0.691160  0.482988
Te9478  Te  0.591279  0.684581  0.465975
Te9479  Te  0.602642  0.691160  0.500000
Mo4743  Mo  0.606430  0.684581  0.482988
Te9480  Te  0.602642  0.691160  0.465975
Te9481  Te  0.591279  0.697739  0.500000
Mo4744  Mo  0.595067  0.704318  0.482988
Te9482  Te  0.591279  0.697739  0.465975
Te9483  Te  0.602642  0.704318  0.500000
Mo4745  Mo  0.606430  0.697739  0.482988
Te9484  Te  0.602642  0.704318  0.465975
Te9485  Te  0.591279  0.710897  0.500000
Mo4746  Mo  0.595067  0.717476  0.482988
Te9486  Te  0.591279  0.710897  0.465975
Te9487  Te  0.602642  0.717476  0.500000
Mo4747  Mo  0.606430  0.710897  0.482988
Te9488  Te  0.602642  0.717476  0.465975
Te9489  Te  0.591279  0.724055  0.500000
Mo4748  Mo  0.595067  0.730634  0.482988
Te9490  Te  0.591279  0.724055  0.465975
Te9491  Te  0.602642  0.730634  0.500000
Mo4749  Mo  0.606430  0.724055  0.482988
Te9492  Te  0.602642  0.730634  0.465975
Te9493  Te  0.614006  0.684581  0.500000
Mo4750  Mo  0.617794  0.691160  0.482988
Te9494  Te  0.614006  0.684581  0.465975
Te9495  Te  0.625370  0.691160  0.500000
Mo4751  Mo  0.629158  0.684581  0.482988
Te9496  Te  0.625370  0.691160  0.465975
Te9497  Te  0.614006  0.697739  0.500000
Mo4752  Mo  0.617794  0.704318  0.482988
Te9498  Te  0.614006  0.697739  0.465975
Te9499  Te  0.625370  0.704318  0.500000
Mo4753  Mo  0.629158  0.697739  0.482988
Te9500  Te  0.625370  0.704318  0.465975
Te9501  Te  0.614006  0.710897  0.500000
Mo4754  Mo  0.617794  0.717476  0.482988
Te9502  Te  0.614006  0.710897  0.465975
Te9503  Te  0.625370  0.717476  0.500000
Mo4755  Mo  0.629158  0.710897  0.482988
Te9504  Te  0.625370  0.717476  0.465975
Te9505  Te  0.614006  0.724055  0.500000
Mo4756  Mo  0.617794  0.730634  0.482988
Te9506  Te  0.614006  0.724055  0.465975
Te9507  Te  0.625370  0.730634  0.500000
Mo4757  Mo  0.629158  0.724055  0.482988
Te9508  Te  0.625370  0.730634  0.465975
Te9509  Te  0.636733  0.684581  0.500000
Mo4758  Mo  0.640521  0.691160  0.482988
Te9510  Te  0.636733  0.684581  0.465975
Te9511  Te  0.648097  0.691160  0.500000
Mo4759  Mo  0.651885  0.684581  0.482988
Te9512  Te  0.648097  0.691160  0.465975
Te9513  Te  0.636733  0.697739  0.500000
Mo4760  Mo  0.640521  0.704318  0.482988
Te9514  Te  0.636733  0.697739  0.465975
Te9515  Te  0.648097  0.704318  0.500000
Mo4761  Mo  0.651885  0.697739  0.482988
Te9516  Te  0.648097  0.704318  0.465975
Te9517  Te  0.636733  0.710897  0.500000
Mo4762  Mo  0.640521  0.717476  0.482988
Te9518  Te  0.636733  0.710897  0.465975
Te9519  Te  0.648097  0.717476  0.500000
Mo4763  Mo  0.651885  0.710897  0.482988
Te9520  Te  0.648097  0.717476  0.465975
Te9521  Te  0.636733  0.724055  0.500000
Mo4764  Mo  0.640521  0.730634  0.482988
Te9522  Te  0.636733  0.724055  0.465975
Te9523  Te  0.648097  0.730634  0.500000
Mo4765  Mo  0.651885  0.724055  0.482988
Te9524  Te  0.648097  0.730634  0.465975
Te9525  Te  0.659461  0.684581  0.500000
Mo4766  Mo  0.663248  0.691160  0.482988
Te9526  Te  0.659461  0.684581  0.465975
Te9527  Te  0.670824  0.691160  0.500000
Mo4767  Mo  0.674612  0.684581  0.482988
Te9528  Te  0.670824  0.691160  0.465975
Te9529  Te  0.659461  0.697739  0.500000
Mo4768  Mo  0.663248  0.704318  0.482988
Te9530  Te  0.659461  0.697739  0.465975
Te9531  Te  0.670824  0.704318  0.500000
Mo4769  Mo  0.674612  0.697739  0.482988
Te9532  Te  0.670824  0.704318  0.465975
Te9533  Te  0.659461  0.710897  0.500000
Mo4770  Mo  0.663248  0.717476  0.482988
Te9534  Te  0.659461  0.710897  0.465975
Te9535  Te  0.670824  0.717476  0.500000
Mo4771  Mo  0.674612  0.710897  0.482988
Te9536  Te  0.670824  0.717476  0.465975
Te9537  Te  0.659461  0.724055  0.500000
Mo4772  Mo  0.663248  0.730634  0.482988
Te9538  Te  0.659461  0.724055  0.465975
Te9539  Te  0.670824  0.730634  0.500000
Mo4773  Mo  0.674612  0.724055  0.482988
Te9540  Te  0.670824  0.730634  0.465975
Te9541  Te  0.682188  0.684581  0.500000
Mo4774  Mo  0.685976  0.691160  0.482988
Te9542  Te  0.682188  0.684581  0.465975
Te9543  Te  0.693551  0.691160  0.500000
Mo4775  Mo  0.697339  0.684581  0.482988
Te9544  Te  0.693551  0.691160  0.465975
Te9545  Te  0.682188  0.697739  0.500000
Mo4776  Mo  0.685976  0.704318  0.482988
Te9546  Te  0.682188  0.697739  0.465975
Te9547  Te  0.693551  0.704318  0.500000
Mo4777  Mo  0.697339  0.697739  0.482988
Te9548  Te  0.693551  0.704318  0.465975
Te9549  Te  0.682188  0.710897  0.500000
Mo4778  Mo  0.685976  0.717476  0.482988
Te9550  Te  0.682188  0.710897  0.465975
Te9551  Te  0.693551  0.717476  0.500000
Mo4779  Mo  0.697339  0.710897  0.482988
Te9552  Te  0.693551  0.717476  0.465975
Te9553  Te  0.682188  0.724055  0.500000
Mo4780  Mo  0.685976  0.730634  0.482988
Te9554  Te  0.682188  0.724055  0.465975
Te9555  Te  0.693551  0.730634  0.500000
Mo4781  Mo  0.697339  0.724055  0.482988
Te9556  Te  0.693551  0.730634  0.465975
Te9557  Te  0.704915  0.684581  0.500000
Mo4782  Mo  0.708703  0.691160  0.482988
Te9558  Te  0.704915  0.684581  0.465975
Te9559  Te  0.716279  0.691160  0.500000
Mo4783  Mo  0.720067  0.684581  0.482988
Te9560  Te  0.716279  0.691160  0.465975
Te9561  Te  0.704915  0.697739  0.500000
Mo4784  Mo  0.708703  0.704318  0.482988
Te9562  Te  0.704915  0.697739  0.465975
Te9563  Te  0.716279  0.704318  0.500000
Mo4785  Mo  0.720067  0.697739  0.482988
Te9564  Te  0.716279  0.704318  0.465975
Te9565  Te  0.704915  0.710897  0.500000
Mo4786  Mo  0.708703  0.717476  0.482988
Te9566  Te  0.704915  0.710897  0.465975
Te9567  Te  0.716279  0.717476  0.500000
Mo4787  Mo  0.720067  0.710897  0.482988
Te9568  Te  0.716279  0.717476  0.465975
Te9569  Te  0.704915  0.724055  0.500000
Mo4788  Mo  0.708703  0.730634  0.482988
Te9570  Te  0.704915  0.724055  0.465975
Te9571  Te  0.716279  0.730634  0.500000
Mo4789  Mo  0.720067  0.724055  0.482988
Te9572  Te  0.716279  0.730634  0.465975
Te9573  Te  0.727642  0.684581  0.500000
Mo4790  Mo  0.731430  0.691160  0.482988
Te9574  Te  0.727642  0.684581  0.465975
Te9575  Te  0.739006  0.691160  0.500000
Mo4791  Mo  0.742794  0.684581  0.482988
Te9576  Te  0.739006  0.691160  0.465975
Te9577  Te  0.727642  0.697739  0.500000
Mo4792  Mo  0.731430  0.704318  0.482988
Te9578  Te  0.727642  0.697739  0.465975
Te9579  Te  0.739006  0.704318  0.500000
Mo4793  Mo  0.742794  0.697739  0.482988
Te9580  Te  0.739006  0.704318  0.465975
Te9581  Te  0.727642  0.710897  0.500000
Mo4794  Mo  0.731430  0.717476  0.482988
Te9582  Te  0.727642  0.710897  0.465975
Te9583  Te  0.739006  0.717476  0.500000
Mo4795  Mo  0.742794  0.710897  0.482988
Te9584  Te  0.739006  0.717476  0.465975
Te9585  Te  0.727642  0.724055  0.500000
Mo4796  Mo  0.731430  0.730634  0.482988
Te9586  Te  0.727642  0.724055  0.465975
Te9587  Te  0.739006  0.730634  0.500000
Mo4797  Mo  0.742794  0.724055  0.482988
Te9588  Te  0.739006  0.730634  0.465975
Te9589  Te  0.750370  0.684581  0.500000
Mo4798  Mo  0.754158  0.691160  0.482988
Te9590  Te  0.750370  0.684581  0.465975
Te9591  Te  0.761733  0.691160  0.500000
Mo4799  Mo  0.765521  0.684581  0.482988
Te9592  Te  0.761733  0.691160  0.465975
Te9593  Te  0.750370  0.697739  0.500000
Mo4800  Mo  0.754158  0.704318  0.482988
Te9594  Te  0.750370  0.697739  0.465975
Te9595  Te  0.761733  0.704318  0.500000
Mo4801  Mo  0.765521  0.697739  0.482988
Te9596  Te  0.761733  0.704318  0.465975
Te9597  Te  0.750370  0.710897  0.500000
Mo4802  Mo  0.754158  0.717476  0.482988
Te9598  Te  0.750370  0.710897  0.465975
Te9599  Te  0.761733  0.717476  0.500000
Mo4803  Mo  0.765521  0.710897  0.482988
Te9600  Te  0.761733  0.717476  0.465975
Te9601  Te  0.750370  0.724055  0.500000
Mo4804  Mo  0.754158  0.730634  0.482988
Te9602  Te  0.750370  0.724055  0.465975
Te9603  Te  0.761733  0.730634  0.500000
Mo4805  Mo  0.765521  0.724055  0.482988
Te9604  Te  0.761733  0.730634  0.465975
Te9605  Te  0.773097  0.684581  0.500000
Mo4806  Mo  0.776885  0.691160  0.482988
Te9606  Te  0.773097  0.684581  0.465975
Te9607  Te  0.784461  0.691160  0.500000
Mo4807  Mo  0.788248  0.684581  0.482988
Te9608  Te  0.784461  0.691160  0.465975
Te9609  Te  0.773097  0.697739  0.500000
Mo4808  Mo  0.776885  0.704318  0.482988
Te9610  Te  0.773097  0.697739  0.465975
Te9611  Te  0.784461  0.704318  0.500000
Mo4809  Mo  0.788248  0.697739  0.482988
Te9612  Te  0.784461  0.704318  0.465975
Te9613  Te  0.773097  0.710897  0.500000
Mo4810  Mo  0.776885  0.717476  0.482988
Te9614  Te  0.773097  0.710897  0.465975
Te9615  Te  0.784461  0.717476  0.500000
Mo4811  Mo  0.788248  0.710897  0.482988
Te9616  Te  0.784461  0.717476  0.465975
Te9617  Te  0.773097  0.724055  0.500000
Mo4812  Mo  0.776885  0.730634  0.482988
Te9618  Te  0.773097  0.724055  0.465975
Te9619  Te  0.784461  0.730634  0.500000
Mo4813  Mo  0.788248  0.724055  0.482988
Te9620  Te  0.784461  0.730634  0.465975
Te9621  Te  0.795824  0.684581  0.500000
Mo4814  Mo  0.799612  0.691160  0.482988
Te9622  Te  0.795824  0.684581  0.465975
Te9623  Te  0.807188  0.691160  0.500000
Mo4815  Mo  0.810976  0.684581  0.482988
Te9624  Te  0.807188  0.691160  0.465975
Te9625  Te  0.795824  0.697739  0.500000
Mo4816  Mo  0.799612  0.704318  0.482988
Te9626  Te  0.795824  0.697739  0.465975
Te9627  Te  0.807188  0.704318  0.500000
Mo4817  Mo  0.810976  0.697739  0.482988
Te9628  Te  0.807188  0.704318  0.465975
Te9629  Te  0.795824  0.710897  0.500000
Mo4818  Mo  0.799612  0.717476  0.482988
Te9630  Te  0.795824  0.710897  0.465975
Te9631  Te  0.807188  0.717476  0.500000
Mo4819  Mo  0.810976  0.710897  0.482988
Te9632  Te  0.807188  0.717476  0.465975
Te9633  Te  0.795824  0.724055  0.500000
Mo4820  Mo  0.799612  0.730634  0.482988
Te9634  Te  0.795824  0.724055  0.465975
Te9635  Te  0.807188  0.730634  0.500000
Mo4821  Mo  0.810976  0.724055  0.482988
Te9636  Te  0.807188  0.730634  0.465975
Te9637  Te  0.818551  0.684581  0.500000
Mo4822  Mo  0.822339  0.691160  0.482988
Te9638  Te  0.818551  0.684581  0.465975
Te9639  Te  0.829915  0.691160  0.500000
Mo4823  Mo  0.833703  0.684581  0.482988
Te9640  Te  0.829915  0.691160  0.465975
Te9641  Te  0.818551  0.697739  0.500000
Mo4824  Mo  0.822339  0.704318  0.482988
Te9642  Te  0.818551  0.697739  0.465975
Te9643  Te  0.829915  0.704318  0.500000
Mo4825  Mo  0.833703  0.697739  0.482988
Te9644  Te  0.829915  0.704318  0.465975
Te9645  Te  0.818551  0.710897  0.500000
Mo4826  Mo  0.822339  0.717476  0.482988
Te9646  Te  0.818551  0.710897  0.465975
Te9647  Te  0.829915  0.717476  0.500000
Mo4827  Mo  0.833703  0.710897  0.482988
Te9648  Te  0.829915  0.717476  0.465975
Te9649  Te  0.818551  0.724055  0.500000
Mo4828  Mo  0.822339  0.730634  0.482988
Te9650  Te  0.818551  0.724055  0.465975
Te9651  Te  0.829915  0.730634  0.500000
Mo4829  Mo  0.833703  0.724055  0.482988
Te9652  Te  0.829915  0.730634  0.465975
Te9653  Te  0.841279  0.684581  0.500000
Mo4830  Mo  0.845067  0.691160  0.482988
Te9654  Te  0.841279  0.684581  0.465975
Te9655  Te  0.852642  0.691160  0.500000
Mo4831  Mo  0.856430  0.684581  0.482988
Te9656  Te  0.852642  0.691160  0.465975
Te9657  Te  0.841279  0.697739  0.500000
Mo4832  Mo  0.845067  0.704318  0.482988
Te9658  Te  0.841279  0.697739  0.465975
Te9659  Te  0.852642  0.704318  0.500000
Mo4833  Mo  0.856430  0.697739  0.482988
Te9660  Te  0.852642  0.704318  0.465975
Te9661  Te  0.841279  0.710897  0.500000
Mo4834  Mo  0.845067  0.717476  0.482988
Te9662  Te  0.841279  0.710897  0.465975
Te9663  Te  0.852642  0.717476  0.500000
Mo4835  Mo  0.856430  0.710897  0.482988
Te9664  Te  0.852642  0.717476  0.465975
Te9665  Te  0.841279  0.724055  0.500000
Mo4836  Mo  0.845067  0.730634  0.482988
Te9666  Te  0.841279  0.724055  0.465975
Te9667  Te  0.852642  0.730634  0.500000
Mo4837  Mo  0.856430  0.724055  0.482988
Te9668  Te  0.852642  0.730634  0.465975
Te9669  Te  0.864006  0.684581  0.500000
Mo4838  Mo  0.867794  0.691160  0.482988
Te9670  Te  0.864006  0.684581  0.465975
Te9671  Te  0.875370  0.691160  0.500000
Mo4839  Mo  0.879158  0.684581  0.482988
Te9672  Te  0.875370  0.691160  0.465975
Te9673  Te  0.864006  0.697739  0.500000
Mo4840  Mo  0.867794  0.704318  0.482988
Te9674  Te  0.864006  0.697739  0.465975
Te9675  Te  0.875370  0.704318  0.500000
Mo4841  Mo  0.879158  0.697739  0.482988
Te9676  Te  0.875370  0.704318  0.465975
Te9677  Te  0.864006  0.710897  0.500000
Mo4842  Mo  0.867794  0.717476  0.482988
Te9678  Te  0.864006  0.710897  0.465975
Te9679  Te  0.875370  0.717476  0.500000
Mo4843  Mo  0.879158  0.710897  0.482988
Te9680  Te  0.875370  0.717476  0.465975
Te9681  Te  0.864006  0.724055  0.500000
Mo4844  Mo  0.867794  0.730634  0.482988
Te9682  Te  0.864006  0.724055  0.465975
Te9683  Te  0.875370  0.730634  0.500000
Mo4845  Mo  0.879158  0.724055  0.482988
Te9684  Te  0.875370  0.730634  0.465975
Te9685  Te  0.886733  0.684581  0.500000
Mo4846  Mo  0.890521  0.691160  0.482988
Te9686  Te  0.886733  0.684581  0.465975
Te9687  Te  0.898097  0.691160  0.500000
Mo4847  Mo  0.901885  0.684581  0.482988
Te9688  Te  0.898097  0.691160  0.465975
Te9689  Te  0.886733  0.697739  0.500000
Mo4848  Mo  0.890521  0.704318  0.482988
Te9690  Te  0.886733  0.697739  0.465975
Te9691  Te  0.898097  0.704318  0.500000
Mo4849  Mo  0.901885  0.697739  0.482988
Te9692  Te  0.898097  0.704318  0.465975
Te9693  Te  0.886733  0.710897  0.500000
Mo4850  Mo  0.890521  0.717476  0.482988
Te9694  Te  0.886733  0.710897  0.465975
Te9695  Te  0.898097  0.717476  0.500000
Mo4851  Mo  0.901885  0.710897  0.482988
Te9696  Te  0.898097  0.717476  0.465975
Te9697  Te  0.886733  0.724055  0.500000
Mo4852  Mo  0.890521  0.730634  0.482988
Te9698  Te  0.886733  0.724055  0.465975
Te9699  Te  0.898097  0.730634  0.500000
Mo4853  Mo  0.901885  0.724055  0.482988
Te9700  Te  0.898097  0.730634  0.465975
Te9701  Te  0.909461  0.684581  0.500000
Mo4854  Mo  0.913248  0.691160  0.482988
Te9702  Te  0.909461  0.684581  0.465975
Te9703  Te  0.920824  0.691160  0.500000
Mo4855  Mo  0.924612  0.684581  0.482988
Te9704  Te  0.920824  0.691160  0.465975
Te9705  Te  0.909461  0.697739  0.500000
Mo4856  Mo  0.913248  0.704318  0.482988
Te9706  Te  0.909461  0.697739  0.465975
Te9707  Te  0.920824  0.704318  0.500000
Mo4857  Mo  0.924612  0.697739  0.482988
Te9708  Te  0.920824  0.704318  0.465975
Te9709  Te  0.909461  0.710897  0.500000
Mo4858  Mo  0.913248  0.717476  0.482988
Te9710  Te  0.909461  0.710897  0.465975
Te9711  Te  0.920824  0.717476  0.500000
Mo4859  Mo  0.924612  0.710897  0.482988
Te9712  Te  0.920824  0.717476  0.465975
Te9713  Te  0.909461  0.724055  0.500000
Mo4860  Mo  0.913248  0.730634  0.482988
Te9714  Te  0.909461  0.724055  0.465975
Te9715  Te  0.920824  0.730634  0.500000
Mo4861  Mo  0.924612  0.724055  0.482988
Te9716  Te  0.920824  0.730634  0.465975
Te9717  Te  0.932188  0.684581  0.500000
Mo4862  Mo  0.935976  0.691160  0.482988
Te9718  Te  0.932188  0.684581  0.465975
Te9719  Te  0.943552  0.691160  0.500000
Mo4863  Mo  0.947339  0.684581  0.482988
Te9720  Te  0.943552  0.691160  0.465975
Te9721  Te  0.932188  0.697739  0.500000
Mo4864  Mo  0.935976  0.704318  0.482988
Te9722  Te  0.932188  0.697739  0.465975
Te9723  Te  0.943552  0.704318  0.500000
Mo4865  Mo  0.947339  0.697739  0.482988
Te9724  Te  0.943552  0.704318  0.465975
Te9725  Te  0.932188  0.710897  0.500000
Mo4866  Mo  0.935976  0.717476  0.482988
Te9726  Te  0.932188  0.710897  0.465975
Te9727  Te  0.943552  0.717476  0.500000
Mo4867  Mo  0.947339  0.710897  0.482988
Te9728  Te  0.943552  0.717476  0.465975
Te9729  Te  0.932188  0.724055  0.500000
Mo4868  Mo  0.935976  0.730634  0.482988
Te9730  Te  0.932188  0.724055  0.465975
Te9731  Te  0.943552  0.730634  0.500000
Mo4869  Mo  0.947339  0.724055  0.482988
Te9732  Te  0.943552  0.730634  0.465975
Te9733  Te  0.954915  0.684581  0.500000
Mo4870  Mo  0.958703  0.691160  0.482988
Te9734  Te  0.954915  0.684581  0.465975
Te9735  Te  0.966279  0.691160  0.500000
Mo4871  Mo  0.970067  0.684581  0.482988
Te9736  Te  0.966279  0.691160  0.465975
Te9737  Te  0.954915  0.697739  0.500000
Mo4872  Mo  0.958703  0.704318  0.482988
Te9738  Te  0.954915  0.697739  0.465975
Te9739  Te  0.966279  0.704318  0.500000
Mo4873  Mo  0.970067  0.697739  0.482988
Te9740  Te  0.966279  0.704318  0.465975
Te9741  Te  0.954915  0.710897  0.500000
Mo4874  Mo  0.958703  0.717476  0.482988
Te9742  Te  0.954915  0.710897  0.465975
Te9743  Te  0.966279  0.717476  0.500000
Mo4875  Mo  0.970067  0.710897  0.482988
Te9744  Te  0.966279  0.717476  0.465975
Te9745  Te  0.954915  0.724055  0.500000
Mo4876  Mo  0.958703  0.730634  0.482988
Te9746  Te  0.954915  0.724055  0.465975
Te9747  Te  0.966279  0.730634  0.500000
Mo4877  Mo  0.970067  0.724055  0.482988
Te9748  Te  0.966279  0.730634  0.465975
Te9749  Te  0.977642  0.684581  0.500000
Mo4878  Mo  0.981430  0.691160  0.482988
Te9750  Te  0.977642  0.684581  0.465975
Te9751  Te  0.989006  0.691160  0.500000
Mo4879  Mo  0.992794  0.684581  0.482988
Te9752  Te  0.989006  0.691160  0.465975
Te9753  Te  0.977642  0.697739  0.500000
Mo4880  Mo  0.981430  0.704318  0.482988
Te9754  Te  0.977642  0.697739  0.465975
Te9755  Te  0.989006  0.704318  0.500000
Mo4881  Mo  0.992794  0.697739  0.482988
Te9756  Te  0.989006  0.704318  0.465975
Te9757  Te  0.977642  0.710897  0.500000
Mo4882  Mo  0.981430  0.717476  0.482988
Te9758  Te  0.977642  0.710897  0.465975
Te9759  Te  0.989006  0.717476  0.500000
Mo4883  Mo  0.992794  0.710897  0.482988
Te9760  Te  0.989006  0.717476  0.465975
Te9761  Te  0.977642  0.724055  0.500000
Mo4884  Mo  0.981430  0.730634  0.482988
Te9762  Te  0.977642  0.724055  0.465975
Te9763  Te  0.989006  0.730634  0.500000
Mo4885  Mo  0.992794  0.724055  0.482988
Te9764  Te  0.989006  0.730634  0.465975
Te9765  Te  0.000370  0.737213  0.500000
Mo4886  Mo  0.004158  0.743792  0.482988
Te9766  Te  0.000370  0.737213  0.465975
Te9767  Te  0.011733  0.743792  0.500000
Mo4887  Mo  0.015521  0.737213  0.482988
Te9768  Te  0.011733  0.743792  0.465975
Te9769  Te  0.000370  0.750371  0.500000
Mo4888  Mo  0.004158  0.756950  0.482988
Te9770  Te  0.000370  0.750371  0.465975
Te9771  Te  0.011733  0.756950  0.500000
Mo4889  Mo  0.015521  0.750371  0.482988
Te9772  Te  0.011733  0.756950  0.465975
Te9773  Te  0.000370  0.763529  0.500000
Mo4890  Mo  0.004158  0.770107  0.482988
Te9774  Te  0.000370  0.763529  0.465975
Te9775  Te  0.011733  0.770107  0.500000
Mo4891  Mo  0.015521  0.763529  0.482988
Te9776  Te  0.011733  0.770107  0.465975
Te9777  Te  0.000370  0.776686  0.500000
Mo4892  Mo  0.004158  0.783265  0.482988
Te9778  Te  0.000370  0.776686  0.465975
Te9779  Te  0.011733  0.783265  0.500000
Mo4893  Mo  0.015521  0.776686  0.482988
Te9780  Te  0.011733  0.783265  0.465975
Te9781  Te  0.023097  0.737213  0.500000
Mo4894  Mo  0.026885  0.743792  0.482988
Te9782  Te  0.023097  0.737213  0.465975
Te9783  Te  0.034461  0.743792  0.500000
Mo4895  Mo  0.038249  0.737213  0.482988
Te9784  Te  0.034461  0.743792  0.465975
Te9785  Te  0.023097  0.750371  0.500000
Mo4896  Mo  0.026885  0.756950  0.482988
Te9786  Te  0.023097  0.750371  0.465975
Te9787  Te  0.034461  0.756950  0.500000
Mo4897  Mo  0.038249  0.750371  0.482988
Te9788  Te  0.034461  0.756950  0.465975
Te9789  Te  0.023097  0.763529  0.500000
Mo4898  Mo  0.026885  0.770107  0.482988
Te9790  Te  0.023097  0.763529  0.465975
Te9791  Te  0.034461  0.770107  0.500000
Mo4899  Mo  0.038249  0.763529  0.482988
Te9792  Te  0.034461  0.770107  0.465975
Te9793  Te  0.023097  0.776686  0.500000
Mo4900  Mo  0.026885  0.783265  0.482988
Te9794  Te  0.023097  0.776686  0.465975
Te9795  Te  0.034461  0.783265  0.500000
Mo4901  Mo  0.038249  0.776686  0.482988
Te9796  Te  0.034461  0.783265  0.465975
Te9797  Te  0.045824  0.737213  0.500000
Mo4902  Mo  0.049612  0.743792  0.482988
Te9798  Te  0.045824  0.737213  0.465975
Te9799  Te  0.057188  0.743792  0.500000
Mo4903  Mo  0.060976  0.737213  0.482988
Te9800  Te  0.057188  0.743792  0.465975
Te9801  Te  0.045824  0.750371  0.500000
Mo4904  Mo  0.049612  0.756950  0.482988
Te9802  Te  0.045824  0.750371  0.465975
Te9803  Te  0.057188  0.756950  0.500000
Mo4905  Mo  0.060976  0.750371  0.482988
Te9804  Te  0.057188  0.756950  0.465975
Te9805  Te  0.045824  0.763529  0.500000
Mo4906  Mo  0.049612  0.770107  0.482988
Te9806  Te  0.045824  0.763529  0.465975
Te9807  Te  0.057188  0.770107  0.500000
Mo4907  Mo  0.060976  0.763529  0.482988
Te9808  Te  0.057188  0.770107  0.465975
Te9809  Te  0.045824  0.776686  0.500000
Mo4908  Mo  0.049612  0.783265  0.482988
Te9810  Te  0.045824  0.776686  0.465975
Te9811  Te  0.057188  0.783265  0.500000
Mo4909  Mo  0.060976  0.776686  0.482988
Te9812  Te  0.057188  0.783265  0.465975
Te9813  Te  0.068552  0.737213  0.500000
Mo4910  Mo  0.072339  0.743792  0.482988
Te9814  Te  0.068552  0.737213  0.465975
Te9815  Te  0.079915  0.743792  0.500000
Mo4911  Mo  0.083703  0.737213  0.482988
Te9816  Te  0.079915  0.743792  0.465975
Te9817  Te  0.068552  0.750371  0.500000
Mo4912  Mo  0.072339  0.756950  0.482988
Te9818  Te  0.068552  0.750371  0.465975
Te9819  Te  0.079915  0.756950  0.500000
Mo4913  Mo  0.083703  0.750371  0.482988
Te9820  Te  0.079915  0.756950  0.465975
Te9821  Te  0.068552  0.763529  0.500000
Mo4914  Mo  0.072339  0.770107  0.482988
Te9822  Te  0.068552  0.763529  0.465975
Te9823  Te  0.079915  0.770107  0.500000
Mo4915  Mo  0.083703  0.763529  0.482988
Te9824  Te  0.079915  0.770107  0.465975
Te9825  Te  0.068552  0.776686  0.500000
Mo4916  Mo  0.072339  0.783265  0.482988
Te9826  Te  0.068552  0.776686  0.465975
Te9827  Te  0.079915  0.783265  0.500000
Mo4917  Mo  0.083703  0.776686  0.482988
Te9828  Te  0.079915  0.783265  0.465975
Te9829  Te  0.091279  0.737213  0.500000
Mo4918  Mo  0.095067  0.743792  0.482988
Te9830  Te  0.091279  0.737213  0.465975
Te9831  Te  0.102642  0.743792  0.500000
Mo4919  Mo  0.106430  0.737213  0.482988
Te9832  Te  0.102642  0.743792  0.465975
Te9833  Te  0.091279  0.750371  0.500000
Mo4920  Mo  0.095067  0.756950  0.482988
Te9834  Te  0.091279  0.750371  0.465975
Te9835  Te  0.102642  0.756950  0.500000
Mo4921  Mo  0.106430  0.750371  0.482988
Te9836  Te  0.102642  0.756950  0.465975
Te9837  Te  0.091279  0.763529  0.500000
Mo4922  Mo  0.095067  0.770107  0.482988
Te9838  Te  0.091279  0.763529  0.465975
Te9839  Te  0.102642  0.770107  0.500000
Mo4923  Mo  0.106430  0.763529  0.482988
Te9840  Te  0.102642  0.770107  0.465975
Te9841  Te  0.091279  0.776686  0.500000
Mo4924  Mo  0.095067  0.783265  0.482988
Te9842  Te  0.091279  0.776686  0.465975
Te9843  Te  0.102642  0.783265  0.500000
Mo4925  Mo  0.106430  0.776686  0.482988
Te9844  Te  0.102642  0.783265  0.465975
Te9845  Te  0.114006  0.737213  0.500000
Mo4926  Mo  0.117794  0.743792  0.482988
Te9846  Te  0.114006  0.737213  0.465975
Te9847  Te  0.125370  0.743792  0.500000
Mo4927  Mo  0.129158  0.737213  0.482988
Te9848  Te  0.125370  0.743792  0.465975
Te9849  Te  0.114006  0.750371  0.500000
Mo4928  Mo  0.117794  0.756950  0.482988
Te9850  Te  0.114006  0.750371  0.465975
Te9851  Te  0.125370  0.756950  0.500000
Mo4929  Mo  0.129158  0.750371  0.482988
Te9852  Te  0.125370  0.756950  0.465975
Te9853  Te  0.114006  0.763529  0.500000
Mo4930  Mo  0.117794  0.770107  0.482988
Te9854  Te  0.114006  0.763529  0.465975
Te9855  Te  0.125370  0.770107  0.500000
Mo4931  Mo  0.129158  0.763529  0.482988
Te9856  Te  0.125370  0.770107  0.465975
Te9857  Te  0.114006  0.776686  0.500000
Mo4932  Mo  0.117794  0.783265  0.482988
Te9858  Te  0.114006  0.776686  0.465975
Te9859  Te  0.125370  0.783265  0.500000
Mo4933  Mo  0.129158  0.776686  0.482988
Te9860  Te  0.125370  0.783265  0.465975
Te9861  Te  0.136733  0.737213  0.500000
Mo4934  Mo  0.140521  0.743792  0.482988
Te9862  Te  0.136733  0.737213  0.465975
Te9863  Te  0.148097  0.743792  0.500000
Mo4935  Mo  0.151885  0.737213  0.482988
Te9864  Te  0.148097  0.743792  0.465975
Te9865  Te  0.136733  0.750371  0.500000
Mo4936  Mo  0.140521  0.756950  0.482988
Te9866  Te  0.136733  0.750371  0.465975
Te9867  Te  0.148097  0.756950  0.500000
Mo4937  Mo  0.151885  0.750371  0.482988
Te9868  Te  0.148097  0.756950  0.465975
Te9869  Te  0.136733  0.763529  0.500000
Mo4938  Mo  0.140521  0.770107  0.482988
Te9870  Te  0.136733  0.763529  0.465975
Te9871  Te  0.148097  0.770107  0.500000
Mo4939  Mo  0.151885  0.763529  0.482988
Te9872  Te  0.148097  0.770107  0.465975
Te9873  Te  0.136733  0.776686  0.500000
Mo4940  Mo  0.140521  0.783265  0.482988
Te9874  Te  0.136733  0.776686  0.465975
Te9875  Te  0.148097  0.783265  0.500000
Mo4941  Mo  0.151885  0.776686  0.482988
Te9876  Te  0.148097  0.783265  0.465975
Te9877  Te  0.159461  0.737213  0.500000
Mo4942  Mo  0.163248  0.743792  0.482988
Te9878  Te  0.159461  0.737213  0.465975
Te9879  Te  0.170824  0.743792  0.500000
Mo4943  Mo  0.174612  0.737213  0.482988
Te9880  Te  0.170824  0.743792  0.465975
Te9881  Te  0.159461  0.750371  0.500000
Mo4944  Mo  0.163248  0.756950  0.482988
Te9882  Te  0.159461  0.750371  0.465975
Te9883  Te  0.170824  0.756950  0.500000
Mo4945  Mo  0.174612  0.750371  0.482988
Te9884  Te  0.170824  0.756950  0.465975
Te9885  Te  0.159461  0.763529  0.500000
Mo4946  Mo  0.163248  0.770107  0.482988
Te9886  Te  0.159461  0.763529  0.465975
Te9887  Te  0.170824  0.770107  0.500000
Mo4947  Mo  0.174612  0.763529  0.482988
Te9888  Te  0.170824  0.770107  0.465975
Te9889  Te  0.159461  0.776686  0.500000
Mo4948  Mo  0.163248  0.783265  0.482988
Te9890  Te  0.159461  0.776686  0.465975
Te9891  Te  0.170824  0.783265  0.500000
Mo4949  Mo  0.174612  0.776686  0.482988
Te9892  Te  0.170824  0.783265  0.465975
Te9893  Te  0.182188  0.737213  0.500000
Mo4950  Mo  0.185976  0.743792  0.482988
Te9894  Te  0.182188  0.737213  0.465975
Te9895  Te  0.193551  0.743792  0.500000
Mo4951  Mo  0.197339  0.737213  0.482988
Te9896  Te  0.193551  0.743792  0.465975
Te9897  Te  0.182188  0.750371  0.500000
Mo4952  Mo  0.185976  0.756950  0.482988
Te9898  Te  0.182188  0.750371  0.465975
Te9899  Te  0.193551  0.756950  0.500000
Mo4953  Mo  0.197339  0.750371  0.482988
Te9900  Te  0.193551  0.756950  0.465975
Te9901  Te  0.182188  0.763529  0.500000
Mo4954  Mo  0.185976  0.770107  0.482988
Te9902  Te  0.182188  0.763529  0.465975
Te9903  Te  0.193551  0.770107  0.500000
Mo4955  Mo  0.197339  0.763529  0.482988
Te9904  Te  0.193551  0.770107  0.465975
Te9905  Te  0.182188  0.776686  0.500000
Mo4956  Mo  0.185976  0.783265  0.482988
Te9906  Te  0.182188  0.776686  0.465975
Te9907  Te  0.193551  0.783265  0.500000
Mo4957  Mo  0.197339  0.776686  0.482988
Te9908  Te  0.193551  0.783265  0.465975
Te9909  Te  0.204915  0.737213  0.500000
Mo4958  Mo  0.208703  0.743792  0.482988
Te9910  Te  0.204915  0.737213  0.465975
Te9911  Te  0.216279  0.743792  0.500000
Mo4959  Mo  0.220067  0.737213  0.482988
Te9912  Te  0.216279  0.743792  0.465975
Te9913  Te  0.204915  0.750371  0.500000
Mo4960  Mo  0.208703  0.756950  0.482988
Te9914  Te  0.204915  0.750371  0.465975
Te9915  Te  0.216279  0.756950  0.500000
Mo4961  Mo  0.220067  0.750371  0.482988
Te9916  Te  0.216279  0.756950  0.465975
Te9917  Te  0.204915  0.763529  0.500000
Mo4962  Mo  0.208703  0.770107  0.482988
Te9918  Te  0.204915  0.763529  0.465975
Te9919  Te  0.216279  0.770107  0.500000
Mo4963  Mo  0.220067  0.763529  0.482988
Te9920  Te  0.216279  0.770107  0.465975
Te9921  Te  0.204915  0.776686  0.500000
Mo4964  Mo  0.208703  0.783265  0.482988
Te9922  Te  0.204915  0.776686  0.465975
Te9923  Te  0.216279  0.783265  0.500000
Mo4965  Mo  0.220067  0.776686  0.482988
Te9924  Te  0.216279  0.783265  0.465975
Te9925  Te  0.227642  0.737213  0.500000
Mo4966  Mo  0.231430  0.743792  0.482988
Te9926  Te  0.227642  0.737213  0.465975
Te9927  Te  0.239006  0.743792  0.500000
Mo4967  Mo  0.242794  0.737213  0.482988
Te9928  Te  0.239006  0.743792  0.465975
Te9929  Te  0.227642  0.750371  0.500000
Mo4968  Mo  0.231430  0.756950  0.482988
Te9930  Te  0.227642  0.750371  0.465975
Te9931  Te  0.239006  0.756950  0.500000
Mo4969  Mo  0.242794  0.750371  0.482988
Te9932  Te  0.239006  0.756950  0.465975
Te9933  Te  0.227642  0.763529  0.500000
Mo4970  Mo  0.231430  0.770107  0.482988
Te9934  Te  0.227642  0.763529  0.465975
Te9935  Te  0.239006  0.770107  0.500000
Mo4971  Mo  0.242794  0.763529  0.482988
Te9936  Te  0.239006  0.770107  0.465975
Te9937  Te  0.227642  0.776686  0.500000
Mo4972  Mo  0.231430  0.783265  0.482988
Te9938  Te  0.227642  0.776686  0.465975
Te9939  Te  0.239006  0.783265  0.500000
Mo4973  Mo  0.242794  0.776686  0.482988
Te9940  Te  0.239006  0.783265  0.465975
Te9941  Te  0.250370  0.737213  0.500000
Mo4974  Mo  0.254158  0.743792  0.482988
Te9942  Te  0.250370  0.737213  0.465975
Te9943  Te  0.261733  0.743792  0.500000
Mo4975  Mo  0.265521  0.737213  0.482988
Te9944  Te  0.261733  0.743792  0.465975
Te9945  Te  0.250370  0.750371  0.500000
Mo4976  Mo  0.254158  0.756950  0.482988
Te9946  Te  0.250370  0.750371  0.465975
Te9947  Te  0.261733  0.756950  0.500000
Mo4977  Mo  0.265521  0.750371  0.482988
Te9948  Te  0.261733  0.756950  0.465975
Te9949  Te  0.250370  0.763529  0.500000
Mo4978  Mo  0.254158  0.770107  0.482988
Te9950  Te  0.250370  0.763529  0.465975
Te9951  Te  0.261733  0.770107  0.500000
Mo4979  Mo  0.265521  0.763529  0.482988
Te9952  Te  0.261733  0.770107  0.465975
Te9953  Te  0.250370  0.776686  0.500000
Mo4980  Mo  0.254158  0.783265  0.482988
Te9954  Te  0.250370  0.776686  0.465975
Te9955  Te  0.261733  0.783265  0.500000
Mo4981  Mo  0.265521  0.776686  0.482988
Te9956  Te  0.261733  0.783265  0.465975
Te9957  Te  0.273097  0.737213  0.500000
Mo4982  Mo  0.276885  0.743792  0.482988
Te9958  Te  0.273097  0.737213  0.465975
Te9959  Te  0.284461  0.743792  0.500000
Mo4983  Mo  0.288248  0.737213  0.482988
Te9960  Te  0.284461  0.743792  0.465975
Te9961  Te  0.273097  0.750371  0.500000
Mo4984  Mo  0.276885  0.756950  0.482988
Te9962  Te  0.273097  0.750371  0.465975
Te9963  Te  0.284461  0.756950  0.500000
Mo4985  Mo  0.288248  0.750371  0.482988
Te9964  Te  0.284461  0.756950  0.465975
Te9965  Te  0.273097  0.763529  0.500000
Mo4986  Mo  0.276885  0.770107  0.482988
Te9966  Te  0.273097  0.763529  0.465975
Te9967  Te  0.284461  0.770107  0.500000
Mo4987  Mo  0.288248  0.763529  0.482988
Te9968  Te  0.284461  0.770107  0.465975
Te9969  Te  0.273097  0.776686  0.500000
Mo4988  Mo  0.276885  0.783265  0.482988
Te9970  Te  0.273097  0.776686  0.465975
Te9971  Te  0.284461  0.783265  0.500000
Mo4989  Mo  0.288248  0.776686  0.482988
Te9972  Te  0.284461  0.783265  0.465975
Te9973  Te  0.295824  0.737213  0.500000
Mo4990  Mo  0.299612  0.743792  0.482988
Te9974  Te  0.295824  0.737213  0.465975
Te9975  Te  0.307188  0.743792  0.500000
Mo4991  Mo  0.310976  0.737213  0.482988
Te9976  Te  0.307188  0.743792  0.465975
Te9977  Te  0.295824  0.750371  0.500000
Mo4992  Mo  0.299612  0.756950  0.482988
Te9978  Te  0.295824  0.750371  0.465975
Te9979  Te  0.307188  0.756950  0.500000
Mo4993  Mo  0.310976  0.750371  0.482988
Te9980  Te  0.307188  0.756950  0.465975
Te9981  Te  0.295824  0.763529  0.500000
Mo4994  Mo  0.299612  0.770107  0.482988
Te9982  Te  0.295824  0.763529  0.465975
Te9983  Te  0.307188  0.770107  0.500000
Mo4995  Mo  0.310976  0.763529  0.482988
Te9984  Te  0.307188  0.770107  0.465975
Te9985  Te  0.295824  0.776686  0.500000
Mo4996  Mo  0.299612  0.783265  0.482988
Te9986  Te  0.295824  0.776686  0.465975
Te9987  Te  0.307188  0.783265  0.500000
Mo4997  Mo  0.310976  0.776686  0.482988
Te9988  Te  0.307188  0.783265  0.465975
Te9989  Te  0.318551  0.737213  0.500000
Mo4998  Mo  0.322339  0.743792  0.482988
Te9990  Te  0.318551  0.737213  0.465975
Te9991  Te  0.329915  0.743792  0.500000
Mo4999  Mo  0.333703  0.737213  0.482988
Te9992  Te  0.329915  0.743792  0.465975
Te9993  Te  0.318551  0.750371  0.500000
Mo5000  Mo  0.322339  0.756950  0.482988
Te9994  Te  0.318551  0.750371  0.465975
Te9995  Te  0.329915  0.756950  0.500000
Mo5001  Mo  0.333703  0.750371  0.482988
Te9996  Te  0.329915  0.756950  0.465975
Te9997  Te  0.318551  0.763529  0.500000
Mo5002  Mo  0.322339  0.770107  0.482988
Te9998  Te  0.318551  0.763529  0.465975
Te9999  Te  0.329915  0.770107  0.500000
Mo5003  Mo  0.333703  0.763529  0.482988
Te10000  Te  0.329915  0.770107  0.465975
Te10001  Te  0.318551  0.776686  0.500000
Mo5004  Mo  0.322339  0.783265  0.482988
Te10002  Te  0.318551  0.776686  0.465975
Te10003  Te  0.329915  0.783265  0.500000
Mo5005  Mo  0.333703  0.776686  0.482988
Te10004  Te  0.329915  0.783265  0.465975
Te10005  Te  0.341279  0.737213  0.500000
Mo5006  Mo  0.345067  0.743792  0.482988
Te10006  Te  0.341279  0.737213  0.465975
Te10007  Te  0.352642  0.743792  0.500000
Mo5007  Mo  0.356430  0.737213  0.482988
Te10008  Te  0.352642  0.743792  0.465975
Te10009  Te  0.341279  0.750371  0.500000
Mo5008  Mo  0.345067  0.756950  0.482988
Te10010  Te  0.341279  0.750371  0.465975
Te10011  Te  0.352642  0.756950  0.500000
Mo5009  Mo  0.356430  0.750371  0.482988
Te10012  Te  0.352642  0.756950  0.465975
Te10013  Te  0.341279  0.763529  0.500000
Mo5010  Mo  0.345067  0.770107  0.482988
Te10014  Te  0.341279  0.763529  0.465975
Te10015  Te  0.352642  0.770107  0.500000
Mo5011  Mo  0.356430  0.763529  0.482988
Te10016  Te  0.352642  0.770107  0.465975
Te10017  Te  0.341279  0.776686  0.500000
Mo5012  Mo  0.345067  0.783265  0.482988
Te10018  Te  0.341279  0.776686  0.465975
Te10019  Te  0.352642  0.783265  0.500000
Mo5013  Mo  0.356430  0.776686  0.482988
Te10020  Te  0.352642  0.783265  0.465975
Te10021  Te  0.364006  0.737213  0.500000
Mo5014  Mo  0.367794  0.743792  0.482988
Te10022  Te  0.364006  0.737213  0.465975
Te10023  Te  0.375370  0.743792  0.500000
Mo5015  Mo  0.379158  0.737213  0.482988
Te10024  Te  0.375370  0.743792  0.465975
Te10025  Te  0.364006  0.750371  0.500000
Mo5016  Mo  0.367794  0.756950  0.482988
Te10026  Te  0.364006  0.750371  0.465975
Te10027  Te  0.375370  0.756950  0.500000
Mo5017  Mo  0.379158  0.750371  0.482988
Te10028  Te  0.375370  0.756950  0.465975
Te10029  Te  0.364006  0.763529  0.500000
Mo5018  Mo  0.367794  0.770107  0.482988
Te10030  Te  0.364006  0.763529  0.465975
Te10031  Te  0.375370  0.770107  0.500000
Mo5019  Mo  0.379158  0.763529  0.482988
Te10032  Te  0.375370  0.770107  0.465975
Te10033  Te  0.364006  0.776686  0.500000
Mo5020  Mo  0.367794  0.783265  0.482988
Te10034  Te  0.364006  0.776686  0.465975
Te10035  Te  0.375370  0.783265  0.500000
Mo5021  Mo  0.379158  0.776686  0.482988
Te10036  Te  0.375370  0.783265  0.465975
Te10037  Te  0.386733  0.737213  0.500000
Mo5022  Mo  0.390521  0.743792  0.482988
Te10038  Te  0.386733  0.737213  0.465975
Te10039  Te  0.398097  0.743792  0.500000
Mo5023  Mo  0.401885  0.737213  0.482988
Te10040  Te  0.398097  0.743792  0.465975
Te10041  Te  0.386733  0.750371  0.500000
Mo5024  Mo  0.390521  0.756950  0.482988
Te10042  Te  0.386733  0.750371  0.465975
Te10043  Te  0.398097  0.756950  0.500000
Mo5025  Mo  0.401885  0.750371  0.482988
Te10044  Te  0.398097  0.756950  0.465975
Te10045  Te  0.386733  0.763529  0.500000
Mo5026  Mo  0.390521  0.770107  0.482988
Te10046  Te  0.386733  0.763529  0.465975
Te10047  Te  0.398097  0.770107  0.500000
Mo5027  Mo  0.401885  0.763529  0.482988
Te10048  Te  0.398097  0.770107  0.465975
Te10049  Te  0.386733  0.776686  0.500000
Mo5028  Mo  0.390521  0.783265  0.482988
Te10050  Te  0.386733  0.776686  0.465975
Te10051  Te  0.398097  0.783265  0.500000
Mo5029  Mo  0.401885  0.776686  0.482988
Te10052  Te  0.398097  0.783265  0.465975
Te10053  Te  0.409461  0.737213  0.500000
Mo5030  Mo  0.413248  0.743792  0.482988
Te10054  Te  0.409461  0.737213  0.465975
Te10055  Te  0.420824  0.743792  0.500000
Mo5031  Mo  0.424612  0.737213  0.482988
Te10056  Te  0.420824  0.743792  0.465975
Te10057  Te  0.409461  0.750371  0.500000
Mo5032  Mo  0.413248  0.756950  0.482988
Te10058  Te  0.409461  0.750371  0.465975
Te10059  Te  0.420824  0.756950  0.500000
Mo5033  Mo  0.424612  0.750371  0.482988
Te10060  Te  0.420824  0.756950  0.465975
Te10061  Te  0.409461  0.763529  0.500000
Mo5034  Mo  0.413248  0.770107  0.482988
Te10062  Te  0.409461  0.763529  0.465975
Te10063  Te  0.420824  0.770107  0.500000
Mo5035  Mo  0.424612  0.763529  0.482988
Te10064  Te  0.420824  0.770107  0.465975
Te10065  Te  0.409461  0.776686  0.500000
Mo5036  Mo  0.413248  0.783265  0.482988
Te10066  Te  0.409461  0.776686  0.465975
Te10067  Te  0.420824  0.783265  0.500000
Mo5037  Mo  0.424612  0.776686  0.482988
Te10068  Te  0.420824  0.783265  0.465975
Te10069  Te  0.432188  0.737213  0.500000
Mo5038  Mo  0.435976  0.743792  0.482988
Te10070  Te  0.432188  0.737213  0.465975
Te10071  Te  0.443552  0.743792  0.500000
Mo5039  Mo  0.447339  0.737213  0.482988
Te10072  Te  0.443552  0.743792  0.465975
Te10073  Te  0.432188  0.750371  0.500000
Mo5040  Mo  0.435976  0.756950  0.482988
Te10074  Te  0.432188  0.750371  0.465975
Te10075  Te  0.443552  0.756950  0.500000
Mo5041  Mo  0.447339  0.750371  0.482988
Te10076  Te  0.443552  0.756950  0.465975
Te10077  Te  0.432188  0.763529  0.500000
Mo5042  Mo  0.435976  0.770107  0.482988
Te10078  Te  0.432188  0.763529  0.465975
Te10079  Te  0.443552  0.770107  0.500000
Mo5043  Mo  0.447339  0.763529  0.482988
Te10080  Te  0.443552  0.770107  0.465975
Te10081  Te  0.432188  0.776686  0.500000
Mo5044  Mo  0.435976  0.783265  0.482988
Te10082  Te  0.432188  0.776686  0.465975
Te10083  Te  0.443552  0.783265  0.500000
Mo5045  Mo  0.447339  0.776686  0.482988
Te10084  Te  0.443552  0.783265  0.465975
Te10085  Te  0.454915  0.737213  0.500000
Mo5046  Mo  0.458703  0.743792  0.482988
Te10086  Te  0.454915  0.737213  0.465975
Te10087  Te  0.466279  0.743792  0.500000
Mo5047  Mo  0.470067  0.737213  0.482988
Te10088  Te  0.466279  0.743792  0.465975
Te10089  Te  0.454915  0.750371  0.500000
Mo5048  Mo  0.458703  0.756950  0.482988
Te10090  Te  0.454915  0.750371  0.465975
Te10091  Te  0.466279  0.756950  0.500000
Mo5049  Mo  0.470067  0.750371  0.482988
Te10092  Te  0.466279  0.756950  0.465975
Te10093  Te  0.454915  0.763529  0.500000
Mo5050  Mo  0.458703  0.770107  0.482988
Te10094  Te  0.454915  0.763529  0.465975
Te10095  Te  0.466279  0.770107  0.500000
Mo5051  Mo  0.470067  0.763529  0.482988
Te10096  Te  0.466279  0.770107  0.465975
Te10097  Te  0.454915  0.776686  0.500000
Mo5052  Mo  0.458703  0.783265  0.482988
Te10098  Te  0.454915  0.776686  0.465975
Te10099  Te  0.466279  0.783265  0.500000
Mo5053  Mo  0.470067  0.776686  0.482988
Te10100  Te  0.466279  0.783265  0.465975
Te10101  Te  0.477642  0.737213  0.500000
Mo5054  Mo  0.481430  0.743792  0.482988
Te10102  Te  0.477642  0.737213  0.465975
Te10103  Te  0.489006  0.743792  0.500000
Mo5055  Mo  0.492794  0.737213  0.482988
Te10104  Te  0.489006  0.743792  0.465975
Te10105  Te  0.477642  0.750371  0.500000
Mo5056  Mo  0.481430  0.756950  0.482988
Te10106  Te  0.477642  0.750371  0.465975
Te10107  Te  0.489006  0.756950  0.500000
Mo5057  Mo  0.492794  0.750371  0.482988
Te10108  Te  0.489006  0.756950  0.465975
Te10109  Te  0.477642  0.763529  0.500000
Mo5058  Mo  0.481430  0.770107  0.482988
Te10110  Te  0.477642  0.763529  0.465975
Te10111  Te  0.489006  0.770107  0.500000
Mo5059  Mo  0.492794  0.763529  0.482988
Te10112  Te  0.489006  0.770107  0.465975
Te10113  Te  0.477642  0.776686  0.500000
Mo5060  Mo  0.481430  0.783265  0.482988
Te10114  Te  0.477642  0.776686  0.465975
Te10115  Te  0.489006  0.783265  0.500000
Mo5061  Mo  0.492794  0.776686  0.482988
Te10116  Te  0.489006  0.783265  0.465975
Te10117  Te  0.500370  0.737213  0.500000
Mo5062  Mo  0.504158  0.743792  0.482988
Te10118  Te  0.500370  0.737213  0.465975
Te10119  Te  0.511733  0.743792  0.500000
Mo5063  Mo  0.515521  0.737213  0.482988
Te10120  Te  0.511733  0.743792  0.465975
Te10121  Te  0.500370  0.750371  0.500000
Mo5064  Mo  0.504158  0.756950  0.482988
Te10122  Te  0.500370  0.750371  0.465975
Te10123  Te  0.511733  0.756950  0.500000
Mo5065  Mo  0.515521  0.750371  0.482988
Te10124  Te  0.511733  0.756950  0.465975
Te10125  Te  0.500370  0.763529  0.500000
Mo5066  Mo  0.504158  0.770107  0.482988
Te10126  Te  0.500370  0.763529  0.465975
Te10127  Te  0.511733  0.770107  0.500000
Mo5067  Mo  0.515521  0.763529  0.482988
Te10128  Te  0.511733  0.770107  0.465975
Te10129  Te  0.500370  0.776686  0.500000
Mo5068  Mo  0.504158  0.783265  0.482988
Te10130  Te  0.500370  0.776686  0.465975
Te10131  Te  0.511733  0.783265  0.500000
Mo5069  Mo  0.515521  0.776686  0.482988
Te10132  Te  0.511733  0.783265  0.465975
Te10133  Te  0.523097  0.737213  0.500000
Mo5070  Mo  0.526885  0.743792  0.482988
Te10134  Te  0.523097  0.737213  0.465975
Te10135  Te  0.534461  0.743792  0.500000
Mo5071  Mo  0.538249  0.737213  0.482988
Te10136  Te  0.534461  0.743792  0.465975
Te10137  Te  0.523097  0.750371  0.500000
Mo5072  Mo  0.526885  0.756950  0.482988
Te10138  Te  0.523097  0.750371  0.465975
Te10139  Te  0.534461  0.756950  0.500000
Mo5073  Mo  0.538249  0.750371  0.482988
Te10140  Te  0.534461  0.756950  0.465975
Te10141  Te  0.523097  0.763529  0.500000
Mo5074  Mo  0.526885  0.770107  0.482988
Te10142  Te  0.523097  0.763529  0.465975
Te10143  Te  0.534461  0.770107  0.500000
Mo5075  Mo  0.538249  0.763529  0.482988
Te10144  Te  0.534461  0.770107  0.465975
Te10145  Te  0.523097  0.776686  0.500000
Mo5076  Mo  0.526885  0.783265  0.482988
Te10146  Te  0.523097  0.776686  0.465975
Te10147  Te  0.534461  0.783265  0.500000
Mo5077  Mo  0.538249  0.776686  0.482988
Te10148  Te  0.534461  0.783265  0.465975
Te10149  Te  0.545824  0.737213  0.500000
Mo5078  Mo  0.549612  0.743792  0.482988
Te10150  Te  0.545824  0.737213  0.465975
Te10151  Te  0.557188  0.743792  0.500000
Mo5079  Mo  0.560976  0.737213  0.482988
Te10152  Te  0.557188  0.743792  0.465975
Te10153  Te  0.545824  0.750371  0.500000
Mo5080  Mo  0.549612  0.756950  0.482988
Te10154  Te  0.545824  0.750371  0.465975
Te10155  Te  0.557188  0.756950  0.500000
Mo5081  Mo  0.560976  0.750371  0.482988
Te10156  Te  0.557188  0.756950  0.465975
Te10157  Te  0.545824  0.763529  0.500000
Mo5082  Mo  0.549612  0.770107  0.482988
Te10158  Te  0.545824  0.763529  0.465975
Te10159  Te  0.557188  0.770107  0.500000
Mo5083  Mo  0.560976  0.763529  0.482988
Te10160  Te  0.557188  0.770107  0.465975
Te10161  Te  0.545824  0.776686  0.500000
Mo5084  Mo  0.549612  0.783265  0.482988
Te10162  Te  0.545824  0.776686  0.465975
Te10163  Te  0.557188  0.783265  0.500000
Mo5085  Mo  0.560976  0.776686  0.482988
Te10164  Te  0.557188  0.783265  0.465975
Te10165  Te  0.568552  0.737213  0.500000
Mo5086  Mo  0.572339  0.743792  0.482988
Te10166  Te  0.568552  0.737213  0.465975
Te10167  Te  0.579915  0.743792  0.500000
Mo5087  Mo  0.583703  0.737213  0.482988
Te10168  Te  0.579915  0.743792  0.465975
Te10169  Te  0.568552  0.750371  0.500000
Mo5088  Mo  0.572339  0.756950  0.482988
Te10170  Te  0.568552  0.750371  0.465975
Te10171  Te  0.579915  0.756950  0.500000
Mo5089  Mo  0.583703  0.750371  0.482988
Te10172  Te  0.579915  0.756950  0.465975
Te10173  Te  0.568552  0.763529  0.500000
Mo5090  Mo  0.572339  0.770107  0.482988
Te10174  Te  0.568552  0.763529  0.465975
Te10175  Te  0.579915  0.770107  0.500000
Mo5091  Mo  0.583703  0.763529  0.482988
Te10176  Te  0.579915  0.770107  0.465975
Te10177  Te  0.568552  0.776686  0.500000
Mo5092  Mo  0.572339  0.783265  0.482988
Te10178  Te  0.568552  0.776686  0.465975
Te10179  Te  0.579915  0.783265  0.500000
Mo5093  Mo  0.583703  0.776686  0.482988
Te10180  Te  0.579915  0.783265  0.465975
Te10181  Te  0.591279  0.737213  0.500000
Mo5094  Mo  0.595067  0.743792  0.482988
Te10182  Te  0.591279  0.737213  0.465975
Te10183  Te  0.602642  0.743792  0.500000
Mo5095  Mo  0.606430  0.737213  0.482988
Te10184  Te  0.602642  0.743792  0.465975
Te10185  Te  0.591279  0.750371  0.500000
Mo5096  Mo  0.595067  0.756950  0.482988
Te10186  Te  0.591279  0.750371  0.465975
Te10187  Te  0.602642  0.756950  0.500000
Mo5097  Mo  0.606430  0.750371  0.482988
Te10188  Te  0.602642  0.756950  0.465975
Te10189  Te  0.591279  0.763529  0.500000
Mo5098  Mo  0.595067  0.770107  0.482988
Te10190  Te  0.591279  0.763529  0.465975
Te10191  Te  0.602642  0.770107  0.500000
Mo5099  Mo  0.606430  0.763529  0.482988
Te10192  Te  0.602642  0.770107  0.465975
Te10193  Te  0.591279  0.776686  0.500000
Mo5100  Mo  0.595067  0.783265  0.482988
Te10194  Te  0.591279  0.776686  0.465975
Te10195  Te  0.602642  0.783265  0.500000
Mo5101  Mo  0.606430  0.776686  0.482988
Te10196  Te  0.602642  0.783265  0.465975
Te10197  Te  0.614006  0.737213  0.500000
Mo5102  Mo  0.617794  0.743792  0.482988
Te10198  Te  0.614006  0.737213  0.465975
Te10199  Te  0.625370  0.743792  0.500000
Mo5103  Mo  0.629158  0.737213  0.482988
Te10200  Te  0.625370  0.743792  0.465975
Te10201  Te  0.614006  0.750371  0.500000
Mo5104  Mo  0.617794  0.756950  0.482988
Te10202  Te  0.614006  0.750371  0.465975
Te10203  Te  0.625370  0.756950  0.500000
Mo5105  Mo  0.629158  0.750371  0.482988
Te10204  Te  0.625370  0.756950  0.465975
Te10205  Te  0.614006  0.763529  0.500000
Mo5106  Mo  0.617794  0.770107  0.482988
Te10206  Te  0.614006  0.763529  0.465975
Te10207  Te  0.625370  0.770107  0.500000
Mo5107  Mo  0.629158  0.763529  0.482988
Te10208  Te  0.625370  0.770107  0.465975
Te10209  Te  0.614006  0.776686  0.500000
Mo5108  Mo  0.617794  0.783265  0.482988
Te10210  Te  0.614006  0.776686  0.465975
Te10211  Te  0.625370  0.783265  0.500000
Mo5109  Mo  0.629158  0.776686  0.482988
Te10212  Te  0.625370  0.783265  0.465975
Te10213  Te  0.636733  0.737213  0.500000
Mo5110  Mo  0.640521  0.743792  0.482988
Te10214  Te  0.636733  0.737213  0.465975
Te10215  Te  0.648097  0.743792  0.500000
Mo5111  Mo  0.651885  0.737213  0.482988
Te10216  Te  0.648097  0.743792  0.465975
Te10217  Te  0.636733  0.750371  0.500000
Mo5112  Mo  0.640521  0.756950  0.482988
Te10218  Te  0.636733  0.750371  0.465975
Te10219  Te  0.648097  0.756950  0.500000
Mo5113  Mo  0.651885  0.750371  0.482988
Te10220  Te  0.648097  0.756950  0.465975
Te10221  Te  0.636733  0.763529  0.500000
Mo5114  Mo  0.640521  0.770107  0.482988
Te10222  Te  0.636733  0.763529  0.465975
Te10223  Te  0.648097  0.770107  0.500000
Mo5115  Mo  0.651885  0.763529  0.482988
Te10224  Te  0.648097  0.770107  0.465975
Te10225  Te  0.636733  0.776686  0.500000
Mo5116  Mo  0.640521  0.783265  0.482988
Te10226  Te  0.636733  0.776686  0.465975
Te10227  Te  0.648097  0.783265  0.500000
Mo5117  Mo  0.651885  0.776686  0.482988
Te10228  Te  0.648097  0.783265  0.465975
Te10229  Te  0.659461  0.737213  0.500000
Mo5118  Mo  0.663248  0.743792  0.482988
Te10230  Te  0.659461  0.737213  0.465975
Te10231  Te  0.670824  0.743792  0.500000
Mo5119  Mo  0.674612  0.737213  0.482988
Te10232  Te  0.670824  0.743792  0.465975
Te10233  Te  0.659461  0.750371  0.500000
Mo5120  Mo  0.663248  0.756950  0.482988
Te10234  Te  0.659461  0.750371  0.465975
Te10235  Te  0.670824  0.756950  0.500000
Mo5121  Mo  0.674612  0.750371  0.482988
Te10236  Te  0.670824  0.756950  0.465975
Te10237  Te  0.659461  0.763529  0.500000
Mo5122  Mo  0.663248  0.770107  0.482988
Te10238  Te  0.659461  0.763529  0.465975
Te10239  Te  0.670824  0.770107  0.500000
Mo5123  Mo  0.674612  0.763529  0.482988
Te10240  Te  0.670824  0.770107  0.465975
Te10241  Te  0.659461  0.776686  0.500000
Mo5124  Mo  0.663248  0.783265  0.482988
Te10242  Te  0.659461  0.776686  0.465975
Te10243  Te  0.670824  0.783265  0.500000
Mo5125  Mo  0.674612  0.776686  0.482988
Te10244  Te  0.670824  0.783265  0.465975
Te10245  Te  0.682188  0.737213  0.500000
Mo5126  Mo  0.685976  0.743792  0.482988
Te10246  Te  0.682188  0.737213  0.465975
Te10247  Te  0.693551  0.743792  0.500000
Mo5127  Mo  0.697339  0.737213  0.482988
Te10248  Te  0.693551  0.743792  0.465975
Te10249  Te  0.682188  0.750371  0.500000
Mo5128  Mo  0.685976  0.756950  0.482988
Te10250  Te  0.682188  0.750371  0.465975
Te10251  Te  0.693551  0.756950  0.500000
Mo5129  Mo  0.697339  0.750371  0.482988
Te10252  Te  0.693551  0.756950  0.465975
Te10253  Te  0.682188  0.763529  0.500000
Mo5130  Mo  0.685976  0.770107  0.482988
Te10254  Te  0.682188  0.763529  0.465975
Te10255  Te  0.693551  0.770107  0.500000
Mo5131  Mo  0.697339  0.763529  0.482988
Te10256  Te  0.693551  0.770107  0.465975
Te10257  Te  0.682188  0.776686  0.500000
Mo5132  Mo  0.685976  0.783265  0.482988
Te10258  Te  0.682188  0.776686  0.465975
Te10259  Te  0.693551  0.783265  0.500000
Mo5133  Mo  0.697339  0.776686  0.482988
Te10260  Te  0.693551  0.783265  0.465975
Te10261  Te  0.704915  0.737213  0.500000
Mo5134  Mo  0.708703  0.743792  0.482988
Te10262  Te  0.704915  0.737213  0.465975
Te10263  Te  0.716279  0.743792  0.500000
Mo5135  Mo  0.720067  0.737213  0.482988
Te10264  Te  0.716279  0.743792  0.465975
Te10265  Te  0.704915  0.750371  0.500000
Mo5136  Mo  0.708703  0.756950  0.482988
Te10266  Te  0.704915  0.750371  0.465975
Te10267  Te  0.716279  0.756950  0.500000
Mo5137  Mo  0.720067  0.750371  0.482988
Te10268  Te  0.716279  0.756950  0.465975
Te10269  Te  0.704915  0.763529  0.500000
Mo5138  Mo  0.708703  0.770107  0.482988
Te10270  Te  0.704915  0.763529  0.465975
Te10271  Te  0.716279  0.770107  0.500000
Mo5139  Mo  0.720067  0.763529  0.482988
Te10272  Te  0.716279  0.770107  0.465975
Te10273  Te  0.704915  0.776686  0.500000
Mo5140  Mo  0.708703  0.783265  0.482988
Te10274  Te  0.704915  0.776686  0.465975
Te10275  Te  0.716279  0.783265  0.500000
Mo5141  Mo  0.720067  0.776686  0.482988
Te10276  Te  0.716279  0.783265  0.465975
Te10277  Te  0.727642  0.737213  0.500000
Mo5142  Mo  0.731430  0.743792  0.482988
Te10278  Te  0.727642  0.737213  0.465975
Te10279  Te  0.739006  0.743792  0.500000
Mo5143  Mo  0.742794  0.737213  0.482988
Te10280  Te  0.739006  0.743792  0.465975
Te10281  Te  0.727642  0.750371  0.500000
Mo5144  Mo  0.731430  0.756950  0.482988
Te10282  Te  0.727642  0.750371  0.465975
Te10283  Te  0.739006  0.756950  0.500000
Mo5145  Mo  0.742794  0.750371  0.482988
Te10284  Te  0.739006  0.756950  0.465975
Te10285  Te  0.727642  0.763529  0.500000
Mo5146  Mo  0.731430  0.770107  0.482988
Te10286  Te  0.727642  0.763529  0.465975
Te10287  Te  0.739006  0.770107  0.500000
Mo5147  Mo  0.742794  0.763529  0.482988
Te10288  Te  0.739006  0.770107  0.465975
Te10289  Te  0.727642  0.776686  0.500000
Mo5148  Mo  0.731430  0.783265  0.482988
Te10290  Te  0.727642  0.776686  0.465975
Te10291  Te  0.739006  0.783265  0.500000
Mo5149  Mo  0.742794  0.776686  0.482988
Te10292  Te  0.739006  0.783265  0.465975
Te10293  Te  0.750370  0.737213  0.500000
Mo5150  Mo  0.754158  0.743792  0.482988
Te10294  Te  0.750370  0.737213  0.465975
Te10295  Te  0.761733  0.743792  0.500000
Mo5151  Mo  0.765521  0.737213  0.482988
Te10296  Te  0.761733  0.743792  0.465975
Te10297  Te  0.750370  0.750371  0.500000
Mo5152  Mo  0.754158  0.756950  0.482988
Te10298  Te  0.750370  0.750371  0.465975
Te10299  Te  0.761733  0.756950  0.500000
Mo5153  Mo  0.765521  0.750371  0.482988
Te10300  Te  0.761733  0.756950  0.465975
Te10301  Te  0.750370  0.763529  0.500000
Mo5154  Mo  0.754158  0.770107  0.482988
Te10302  Te  0.750370  0.763529  0.465975
Te10303  Te  0.761733  0.770107  0.500000
Mo5155  Mo  0.765521  0.763529  0.482988
Te10304  Te  0.761733  0.770107  0.465975
Te10305  Te  0.750370  0.776686  0.500000
Mo5156  Mo  0.754158  0.783265  0.482988
Te10306  Te  0.750370  0.776686  0.465975
Te10307  Te  0.761733  0.783265  0.500000
Mo5157  Mo  0.765521  0.776686  0.482988
Te10308  Te  0.761733  0.783265  0.465975
Te10309  Te  0.773097  0.737213  0.500000
Mo5158  Mo  0.776885  0.743792  0.482988
Te10310  Te  0.773097  0.737213  0.465975
Te10311  Te  0.784461  0.743792  0.500000
Mo5159  Mo  0.788248  0.737213  0.482988
Te10312  Te  0.784461  0.743792  0.465975
Te10313  Te  0.773097  0.750371  0.500000
Mo5160  Mo  0.776885  0.756950  0.482988
Te10314  Te  0.773097  0.750371  0.465975
Te10315  Te  0.784461  0.756950  0.500000
Mo5161  Mo  0.788248  0.750371  0.482988
Te10316  Te  0.784461  0.756950  0.465975
Te10317  Te  0.773097  0.763529  0.500000
Mo5162  Mo  0.776885  0.770107  0.482988
Te10318  Te  0.773097  0.763529  0.465975
Te10319  Te  0.784461  0.770107  0.500000
Mo5163  Mo  0.788248  0.763529  0.482988
Te10320  Te  0.784461  0.770107  0.465975
Te10321  Te  0.773097  0.776686  0.500000
Mo5164  Mo  0.776885  0.783265  0.482988
Te10322  Te  0.773097  0.776686  0.465975
Te10323  Te  0.784461  0.783265  0.500000
Mo5165  Mo  0.788248  0.776686  0.482988
Te10324  Te  0.784461  0.783265  0.465975
Te10325  Te  0.795824  0.737213  0.500000
Mo5166  Mo  0.799612  0.743792  0.482988
Te10326  Te  0.795824  0.737213  0.465975
Te10327  Te  0.807188  0.743792  0.500000
Mo5167  Mo  0.810976  0.737213  0.482988
Te10328  Te  0.807188  0.743792  0.465975
Te10329  Te  0.795824  0.750371  0.500000
Mo5168  Mo  0.799612  0.756950  0.482988
Te10330  Te  0.795824  0.750371  0.465975
Te10331  Te  0.807188  0.756950  0.500000
Mo5169  Mo  0.810976  0.750371  0.482988
Te10332  Te  0.807188  0.756950  0.465975
Te10333  Te  0.795824  0.763529  0.500000
Mo5170  Mo  0.799612  0.770107  0.482988
Te10334  Te  0.795824  0.763529  0.465975
Te10335  Te  0.807188  0.770107  0.500000
Mo5171  Mo  0.810976  0.763529  0.482988
Te10336  Te  0.807188  0.770107  0.465975
Te10337  Te  0.795824  0.776686  0.500000
Mo5172  Mo  0.799612  0.783265  0.482988
Te10338  Te  0.795824  0.776686  0.465975
Te10339  Te  0.807188  0.783265  0.500000
Mo5173  Mo  0.810976  0.776686  0.482988
Te10340  Te  0.807188  0.783265  0.465975
Te10341  Te  0.818551  0.737213  0.500000
Mo5174  Mo  0.822339  0.743792  0.482988
Te10342  Te  0.818551  0.737213  0.465975
Te10343  Te  0.829915  0.743792  0.500000
Mo5175  Mo  0.833703  0.737213  0.482988
Te10344  Te  0.829915  0.743792  0.465975
Te10345  Te  0.818551  0.750371  0.500000
Mo5176  Mo  0.822339  0.756950  0.482988
Te10346  Te  0.818551  0.750371  0.465975
Te10347  Te  0.829915  0.756950  0.500000
Mo5177  Mo  0.833703  0.750371  0.482988
Te10348  Te  0.829915  0.756950  0.465975
Te10349  Te  0.818551  0.763529  0.500000
Mo5178  Mo  0.822339  0.770107  0.482988
Te10350  Te  0.818551  0.763529  0.465975
Te10351  Te  0.829915  0.770107  0.500000
Mo5179  Mo  0.833703  0.763529  0.482988
Te10352  Te  0.829915  0.770107  0.465975
Te10353  Te  0.818551  0.776686  0.500000
Mo5180  Mo  0.822339  0.783265  0.482988
Te10354  Te  0.818551  0.776686  0.465975
Te10355  Te  0.829915  0.783265  0.500000
Mo5181  Mo  0.833703  0.776686  0.482988
Te10356  Te  0.829915  0.783265  0.465975
Te10357  Te  0.841279  0.737213  0.500000
Mo5182  Mo  0.845067  0.743792  0.482988
Te10358  Te  0.841279  0.737213  0.465975
Te10359  Te  0.852642  0.743792  0.500000
Mo5183  Mo  0.856430  0.737213  0.482988
Te10360  Te  0.852642  0.743792  0.465975
Te10361  Te  0.841279  0.750371  0.500000
Mo5184  Mo  0.845067  0.756950  0.482988
Te10362  Te  0.841279  0.750371  0.465975
Te10363  Te  0.852642  0.756950  0.500000
Mo5185  Mo  0.856430  0.750371  0.482988
Te10364  Te  0.852642  0.756950  0.465975
Te10365  Te  0.841279  0.763529  0.500000
Mo5186  Mo  0.845067  0.770107  0.482988
Te10366  Te  0.841279  0.763529  0.465975
Te10367  Te  0.852642  0.770107  0.500000
Mo5187  Mo  0.856430  0.763529  0.482988
Te10368  Te  0.852642  0.770107  0.465975
Te10369  Te  0.841279  0.776686  0.500000
Mo5188  Mo  0.845067  0.783265  0.482988
Te10370  Te  0.841279  0.776686  0.465975
Te10371  Te  0.852642  0.783265  0.500000
Mo5189  Mo  0.856430  0.776686  0.482988
Te10372  Te  0.852642  0.783265  0.465975
Te10373  Te  0.864006  0.737213  0.500000
Mo5190  Mo  0.867794  0.743792  0.482988
Te10374  Te  0.864006  0.737213  0.465975
Te10375  Te  0.875370  0.743792  0.500000
Mo5191  Mo  0.879158  0.737213  0.482988
Te10376  Te  0.875370  0.743792  0.465975
Te10377  Te  0.864006  0.750371  0.500000
Mo5192  Mo  0.867794  0.756950  0.482988
Te10378  Te  0.864006  0.750371  0.465975
Te10379  Te  0.875370  0.756950  0.500000
Mo5193  Mo  0.879158  0.750371  0.482988
Te10380  Te  0.875370  0.756950  0.465975
Te10381  Te  0.864006  0.763529  0.500000
Mo5194  Mo  0.867794  0.770107  0.482988
Te10382  Te  0.864006  0.763529  0.465975
Te10383  Te  0.875370  0.770107  0.500000
Mo5195  Mo  0.879158  0.763529  0.482988
Te10384  Te  0.875370  0.770107  0.465975
Te10385  Te  0.864006  0.776686  0.500000
Mo5196  Mo  0.867794  0.783265  0.482988
Te10386  Te  0.864006  0.776686  0.465975
Te10387  Te  0.875370  0.783265  0.500000
Mo5197  Mo  0.879158  0.776686  0.482988
Te10388  Te  0.875370  0.783265  0.465975
Te10389  Te  0.886733  0.737213  0.500000
Mo5198  Mo  0.890521  0.743792  0.482988
Te10390  Te  0.886733  0.737213  0.465975
Te10391  Te  0.898097  0.743792  0.500000
Mo5199  Mo  0.901885  0.737213  0.482988
Te10392  Te  0.898097  0.743792  0.465975
Te10393  Te  0.886733  0.750371  0.500000
Mo5200  Mo  0.890521  0.756950  0.482988
Te10394  Te  0.886733  0.750371  0.465975
Te10395  Te  0.898097  0.756950  0.500000
Mo5201  Mo  0.901885  0.750371  0.482988
Te10396  Te  0.898097  0.756950  0.465975
Te10397  Te  0.886733  0.763529  0.500000
Mo5202  Mo  0.890521  0.770107  0.482988
Te10398  Te  0.886733  0.763529  0.465975
Te10399  Te  0.898097  0.770107  0.500000
Mo5203  Mo  0.901885  0.763529  0.482988
Te10400  Te  0.898097  0.770107  0.465975
Te10401  Te  0.886733  0.776686  0.500000
Mo5204  Mo  0.890521  0.783265  0.482988
Te10402  Te  0.886733  0.776686  0.465975
Te10403  Te  0.898097  0.783265  0.500000
Mo5205  Mo  0.901885  0.776686  0.482988
Te10404  Te  0.898097  0.783265  0.465975
Te10405  Te  0.909461  0.737213  0.500000
Mo5206  Mo  0.913248  0.743792  0.482988
Te10406  Te  0.909461  0.737213  0.465975
Te10407  Te  0.920824  0.743792  0.500000
Mo5207  Mo  0.924612  0.737213  0.482988
Te10408  Te  0.920824  0.743792  0.465975
Te10409  Te  0.909461  0.750371  0.500000
Mo5208  Mo  0.913248  0.756950  0.482988
Te10410  Te  0.909461  0.750371  0.465975
Te10411  Te  0.920824  0.756950  0.500000
Mo5209  Mo  0.924612  0.750371  0.482988
Te10412  Te  0.920824  0.756950  0.465975
Te10413  Te  0.909461  0.763529  0.500000
Mo5210  Mo  0.913248  0.770107  0.482988
Te10414  Te  0.909461  0.763529  0.465975
Te10415  Te  0.920824  0.770107  0.500000
Mo5211  Mo  0.924612  0.763529  0.482988
Te10416  Te  0.920824  0.770107  0.465975
Te10417  Te  0.909461  0.776686  0.500000
Mo5212  Mo  0.913248  0.783265  0.482988
Te10418  Te  0.909461  0.776686  0.465975
Te10419  Te  0.920824  0.783265  0.500000
Mo5213  Mo  0.924612  0.776686  0.482988
Te10420  Te  0.920824  0.783265  0.465975
Te10421  Te  0.932188  0.737213  0.500000
Mo5214  Mo  0.935976  0.743792  0.482988
Te10422  Te  0.932188  0.737213  0.465975
Te10423  Te  0.943552  0.743792  0.500000
Mo5215  Mo  0.947339  0.737213  0.482988
Te10424  Te  0.943552  0.743792  0.465975
Te10425  Te  0.932188  0.750371  0.500000
Mo5216  Mo  0.935976  0.756950  0.482988
Te10426  Te  0.932188  0.750371  0.465975
Te10427  Te  0.943552  0.756950  0.500000
Mo5217  Mo  0.947339  0.750371  0.482988
Te10428  Te  0.943552  0.756950  0.465975
Te10429  Te  0.932188  0.763529  0.500000
Mo5218  Mo  0.935976  0.770107  0.482988
Te10430  Te  0.932188  0.763529  0.465975
Te10431  Te  0.943552  0.770107  0.500000
Mo5219  Mo  0.947339  0.763529  0.482988
Te10432  Te  0.943552  0.770107  0.465975
Te10433  Te  0.932188  0.776686  0.500000
Mo5220  Mo  0.935976  0.783265  0.482988
Te10434  Te  0.932188  0.776686  0.465975
Te10435  Te  0.943552  0.783265  0.500000
Mo5221  Mo  0.947339  0.776686  0.482988
Te10436  Te  0.943552  0.783265  0.465975
Te10437  Te  0.954915  0.737213  0.500000
Mo5222  Mo  0.958703  0.743792  0.482988
Te10438  Te  0.954915  0.737213  0.465975
Te10439  Te  0.966279  0.743792  0.500000
Mo5223  Mo  0.970067  0.737213  0.482988
Te10440  Te  0.966279  0.743792  0.465975
Te10441  Te  0.954915  0.750371  0.500000
Mo5224  Mo  0.958703  0.756950  0.482988
Te10442  Te  0.954915  0.750371  0.465975
Te10443  Te  0.966279  0.756950  0.500000
Mo5225  Mo  0.970067  0.750371  0.482988
Te10444  Te  0.966279  0.756950  0.465975
Te10445  Te  0.954915  0.763529  0.500000
Mo5226  Mo  0.958703  0.770107  0.482988
Te10446  Te  0.954915  0.763529  0.465975
Te10447  Te  0.966279  0.770107  0.500000
Mo5227  Mo  0.970067  0.763529  0.482988
Te10448  Te  0.966279  0.770107  0.465975
Te10449  Te  0.954915  0.776686  0.500000
Mo5228  Mo  0.958703  0.783265  0.482988
Te10450  Te  0.954915  0.776686  0.465975
Te10451  Te  0.966279  0.783265  0.500000
Mo5229  Mo  0.970067  0.776686  0.482988
Te10452  Te  0.966279  0.783265  0.465975
Te10453  Te  0.977642  0.737213  0.500000
Mo5230  Mo  0.981430  0.743792  0.482988
Te10454  Te  0.977642  0.737213  0.465975
Te10455  Te  0.989006  0.743792  0.500000
Mo5231  Mo  0.992794  0.737213  0.482988
Te10456  Te  0.989006  0.743792  0.465975
Te10457  Te  0.977642  0.750371  0.500000
Mo5232  Mo  0.981430  0.756950  0.482988
Te10458  Te  0.977642  0.750371  0.465975
Te10459  Te  0.989006  0.756950  0.500000
Mo5233  Mo  0.992794  0.750371  0.482988
Te10460  Te  0.989006  0.756950  0.465975
Te10461  Te  0.977642  0.763529  0.500000
Mo5234  Mo  0.981430  0.770107  0.482988
Te10462  Te  0.977642  0.763529  0.465975
Te10463  Te  0.989006  0.770107  0.500000
Mo5235  Mo  0.992794  0.763529  0.482988
Te10464  Te  0.989006  0.770107  0.465975
Te10465  Te  0.977642  0.776686  0.500000
Mo5236  Mo  0.981430  0.783265  0.482988
Te10466  Te  0.977642  0.776686  0.465975
Te10467  Te  0.989006  0.783265  0.500000
Mo5237  Mo  0.992794  0.776686  0.482988
Te10468  Te  0.989006  0.783265  0.465975
Te10469  Te  0.000370  0.789844  0.500000
Mo5238  Mo  0.004158  0.796423  0.482988
Te10470  Te  0.000370  0.789844  0.465975
Te10471  Te  0.011733  0.796423  0.500000
Mo5239  Mo  0.015521  0.789844  0.482988
Te10472  Te  0.011733  0.796423  0.465975
Te10473  Te  0.000370  0.803002  0.500000
Mo5240  Mo  0.004158  0.809581  0.482988
Te10474  Te  0.000370  0.803002  0.465975
Te10475  Te  0.011733  0.809581  0.500000
Mo5241  Mo  0.015521  0.803002  0.482988
Te10476  Te  0.011733  0.809581  0.465975
Te10477  Te  0.000370  0.816160  0.500000
Mo5242  Mo  0.004158  0.822739  0.482988
Te10478  Te  0.000370  0.816160  0.465975
Te10479  Te  0.011733  0.822739  0.500000
Mo5243  Mo  0.015521  0.816160  0.482988
Te10480  Te  0.011733  0.822739  0.465975
Te10481  Te  0.000370  0.829318  0.500000
Mo5244  Mo  0.004158  0.835897  0.482988
Te10482  Te  0.000370  0.829318  0.465975
Te10483  Te  0.011733  0.835897  0.500000
Mo5245  Mo  0.015521  0.829318  0.482988
Te10484  Te  0.011733  0.835897  0.465975
Te10485  Te  0.023097  0.789844  0.500000
Mo5246  Mo  0.026885  0.796423  0.482988
Te10486  Te  0.023097  0.789844  0.465975
Te10487  Te  0.034461  0.796423  0.500000
Mo5247  Mo  0.038249  0.789844  0.482988
Te10488  Te  0.034461  0.796423  0.465975
Te10489  Te  0.023097  0.803002  0.500000
Mo5248  Mo  0.026885  0.809581  0.482988
Te10490  Te  0.023097  0.803002  0.465975
Te10491  Te  0.034461  0.809581  0.500000
Mo5249  Mo  0.038249  0.803002  0.482988
Te10492  Te  0.034461  0.809581  0.465975
Te10493  Te  0.023097  0.816160  0.500000
Mo5250  Mo  0.026885  0.822739  0.482988
Te10494  Te  0.023097  0.816160  0.465975
Te10495  Te  0.034461  0.822739  0.500000
Mo5251  Mo  0.038249  0.816160  0.482988
Te10496  Te  0.034461  0.822739  0.465975
Te10497  Te  0.023097  0.829318  0.500000
Mo5252  Mo  0.026885  0.835897  0.482988
Te10498  Te  0.023097  0.829318  0.465975
Te10499  Te  0.034461  0.835897  0.500000
Mo5253  Mo  0.038249  0.829318  0.482988
Te10500  Te  0.034461  0.835897  0.465975
Te10501  Te  0.045824  0.789844  0.500000
Mo5254  Mo  0.049612  0.796423  0.482988
Te10502  Te  0.045824  0.789844  0.465975
Te10503  Te  0.057188  0.796423  0.500000
Mo5255  Mo  0.060976  0.789844  0.482988
Te10504  Te  0.057188  0.796423  0.465975
Te10505  Te  0.045824  0.803002  0.500000
Mo5256  Mo  0.049612  0.809581  0.482988
Te10506  Te  0.045824  0.803002  0.465975
Te10507  Te  0.057188  0.809581  0.500000
Mo5257  Mo  0.060976  0.803002  0.482988
Te10508  Te  0.057188  0.809581  0.465975
Te10509  Te  0.045824  0.816160  0.500000
Mo5258  Mo  0.049612  0.822739  0.482988
Te10510  Te  0.045824  0.816160  0.465975
Te10511  Te  0.057188  0.822739  0.500000
Mo5259  Mo  0.060976  0.816160  0.482988
Te10512  Te  0.057188  0.822739  0.465975
Te10513  Te  0.045824  0.829318  0.500000
Mo5260  Mo  0.049612  0.835897  0.482988
Te10514  Te  0.045824  0.829318  0.465975
Te10515  Te  0.057188  0.835897  0.500000
Mo5261  Mo  0.060976  0.829318  0.482988
Te10516  Te  0.057188  0.835897  0.465975
Te10517  Te  0.068552  0.789844  0.500000
Mo5262  Mo  0.072339  0.796423  0.482988
Te10518  Te  0.068552  0.789844  0.465975
Te10519  Te  0.079915  0.796423  0.500000
Mo5263  Mo  0.083703  0.789844  0.482988
Te10520  Te  0.079915  0.796423  0.465975
Te10521  Te  0.068552  0.803002  0.500000
Mo5264  Mo  0.072339  0.809581  0.482988
Te10522  Te  0.068552  0.803002  0.465975
Te10523  Te  0.079915  0.809581  0.500000
Mo5265  Mo  0.083703  0.803002  0.482988
Te10524  Te  0.079915  0.809581  0.465975
Te10525  Te  0.068552  0.816160  0.500000
Mo5266  Mo  0.072339  0.822739  0.482988
Te10526  Te  0.068552  0.816160  0.465975
Te10527  Te  0.079915  0.822739  0.500000
Mo5267  Mo  0.083703  0.816160  0.482988
Te10528  Te  0.079915  0.822739  0.465975
Te10529  Te  0.068552  0.829318  0.500000
Mo5268  Mo  0.072339  0.835897  0.482988
Te10530  Te  0.068552  0.829318  0.465975
Te10531  Te  0.079915  0.835897  0.500000
Mo5269  Mo  0.083703  0.829318  0.482988
Te10532  Te  0.079915  0.835897  0.465975
Te10533  Te  0.091279  0.789844  0.500000
Mo5270  Mo  0.095067  0.796423  0.482988
Te10534  Te  0.091279  0.789844  0.465975
Te10535  Te  0.102642  0.796423  0.500000
Mo5271  Mo  0.106430  0.789844  0.482988
Te10536  Te  0.102642  0.796423  0.465975
Te10537  Te  0.091279  0.803002  0.500000
Mo5272  Mo  0.095067  0.809581  0.482988
Te10538  Te  0.091279  0.803002  0.465975
Te10539  Te  0.102642  0.809581  0.500000
Mo5273  Mo  0.106430  0.803002  0.482988
Te10540  Te  0.102642  0.809581  0.465975
Te10541  Te  0.091279  0.816160  0.500000
Mo5274  Mo  0.095067  0.822739  0.482988
Te10542  Te  0.091279  0.816160  0.465975
Te10543  Te  0.102642  0.822739  0.500000
Mo5275  Mo  0.106430  0.816160  0.482988
Te10544  Te  0.102642  0.822739  0.465975
Te10545  Te  0.091279  0.829318  0.500000
Mo5276  Mo  0.095067  0.835897  0.482988
Te10546  Te  0.091279  0.829318  0.465975
Te10547  Te  0.102642  0.835897  0.500000
Mo5277  Mo  0.106430  0.829318  0.482988
Te10548  Te  0.102642  0.835897  0.465975
Te10549  Te  0.114006  0.789844  0.500000
Mo5278  Mo  0.117794  0.796423  0.482988
Te10550  Te  0.114006  0.789844  0.465975
Te10551  Te  0.125370  0.796423  0.500000
Mo5279  Mo  0.129158  0.789844  0.482988
Te10552  Te  0.125370  0.796423  0.465975
Te10553  Te  0.114006  0.803002  0.500000
Mo5280  Mo  0.117794  0.809581  0.482988
Te10554  Te  0.114006  0.803002  0.465975
Te10555  Te  0.125370  0.809581  0.500000
Mo5281  Mo  0.129158  0.803002  0.482988
Te10556  Te  0.125370  0.809581  0.465975
Te10557  Te  0.114006  0.816160  0.500000
Mo5282  Mo  0.117794  0.822739  0.482988
Te10558  Te  0.114006  0.816160  0.465975
Te10559  Te  0.125370  0.822739  0.500000
Mo5283  Mo  0.129158  0.816160  0.482988
Te10560  Te  0.125370  0.822739  0.465975
Te10561  Te  0.114006  0.829318  0.500000
Mo5284  Mo  0.117794  0.835897  0.482988
Te10562  Te  0.114006  0.829318  0.465975
Te10563  Te  0.125370  0.835897  0.500000
Mo5285  Mo  0.129158  0.829318  0.482988
Te10564  Te  0.125370  0.835897  0.465975
Te10565  Te  0.136733  0.789844  0.500000
Mo5286  Mo  0.140521  0.796423  0.482988
Te10566  Te  0.136733  0.789844  0.465975
Te10567  Te  0.148097  0.796423  0.500000
Mo5287  Mo  0.151885  0.789844  0.482988
Te10568  Te  0.148097  0.796423  0.465975
Te10569  Te  0.136733  0.803002  0.500000
Mo5288  Mo  0.140521  0.809581  0.482988
Te10570  Te  0.136733  0.803002  0.465975
Te10571  Te  0.148097  0.809581  0.500000
Mo5289  Mo  0.151885  0.803002  0.482988
Te10572  Te  0.148097  0.809581  0.465975
Te10573  Te  0.136733  0.816160  0.500000
Mo5290  Mo  0.140521  0.822739  0.482988
Te10574  Te  0.136733  0.816160  0.465975
Te10575  Te  0.148097  0.822739  0.500000
Mo5291  Mo  0.151885  0.816160  0.482988
Te10576  Te  0.148097  0.822739  0.465975
Te10577  Te  0.136733  0.829318  0.500000
Mo5292  Mo  0.140521  0.835897  0.482988
Te10578  Te  0.136733  0.829318  0.465975
Te10579  Te  0.148097  0.835897  0.500000
Mo5293  Mo  0.151885  0.829318  0.482988
Te10580  Te  0.148097  0.835897  0.465975
Te10581  Te  0.159461  0.789844  0.500000
Mo5294  Mo  0.163248  0.796423  0.482988
Te10582  Te  0.159461  0.789844  0.465975
Te10583  Te  0.170824  0.796423  0.500000
Mo5295  Mo  0.174612  0.789844  0.482988
Te10584  Te  0.170824  0.796423  0.465975
Te10585  Te  0.159461  0.803002  0.500000
Mo5296  Mo  0.163248  0.809581  0.482988
Te10586  Te  0.159461  0.803002  0.465975
Te10587  Te  0.170824  0.809581  0.500000
Mo5297  Mo  0.174612  0.803002  0.482988
Te10588  Te  0.170824  0.809581  0.465975
Te10589  Te  0.159461  0.816160  0.500000
Mo5298  Mo  0.163248  0.822739  0.482988
Te10590  Te  0.159461  0.816160  0.465975
Te10591  Te  0.170824  0.822739  0.500000
Mo5299  Mo  0.174612  0.816160  0.482988
Te10592  Te  0.170824  0.822739  0.465975
Te10593  Te  0.159461  0.829318  0.500000
Mo5300  Mo  0.163248  0.835897  0.482988
Te10594  Te  0.159461  0.829318  0.465975
Te10595  Te  0.170824  0.835897  0.500000
Mo5301  Mo  0.174612  0.829318  0.482988
Te10596  Te  0.170824  0.835897  0.465975
Te10597  Te  0.182188  0.789844  0.500000
Mo5302  Mo  0.185976  0.796423  0.482988
Te10598  Te  0.182188  0.789844  0.465975
Te10599  Te  0.193551  0.796423  0.500000
Mo5303  Mo  0.197339  0.789844  0.482988
Te10600  Te  0.193551  0.796423  0.465975
Te10601  Te  0.182188  0.803002  0.500000
Mo5304  Mo  0.185976  0.809581  0.482988
Te10602  Te  0.182188  0.803002  0.465975
Te10603  Te  0.193551  0.809581  0.500000
Mo5305  Mo  0.197339  0.803002  0.482988
Te10604  Te  0.193551  0.809581  0.465975
Te10605  Te  0.182188  0.816160  0.500000
Mo5306  Mo  0.185976  0.822739  0.482988
Te10606  Te  0.182188  0.816160  0.465975
Te10607  Te  0.193551  0.822739  0.500000
Mo5307  Mo  0.197339  0.816160  0.482988
Te10608  Te  0.193551  0.822739  0.465975
Te10609  Te  0.182188  0.829318  0.500000
Mo5308  Mo  0.185976  0.835897  0.482988
Te10610  Te  0.182188  0.829318  0.465975
Te10611  Te  0.193551  0.835897  0.500000
Mo5309  Mo  0.197339  0.829318  0.482988
Te10612  Te  0.193551  0.835897  0.465975
Te10613  Te  0.204915  0.789844  0.500000
Mo5310  Mo  0.208703  0.796423  0.482988
Te10614  Te  0.204915  0.789844  0.465975
Te10615  Te  0.216279  0.796423  0.500000
Mo5311  Mo  0.220067  0.789844  0.482988
Te10616  Te  0.216279  0.796423  0.465975
Te10617  Te  0.204915  0.803002  0.500000
Mo5312  Mo  0.208703  0.809581  0.482988
Te10618  Te  0.204915  0.803002  0.465975
Te10619  Te  0.216279  0.809581  0.500000
Mo5313  Mo  0.220067  0.803002  0.482988
Te10620  Te  0.216279  0.809581  0.465975
Te10621  Te  0.204915  0.816160  0.500000
Mo5314  Mo  0.208703  0.822739  0.482988
Te10622  Te  0.204915  0.816160  0.465975
Te10623  Te  0.216279  0.822739  0.500000
Mo5315  Mo  0.220067  0.816160  0.482988
Te10624  Te  0.216279  0.822739  0.465975
Te10625  Te  0.204915  0.829318  0.500000
Mo5316  Mo  0.208703  0.835897  0.482988
Te10626  Te  0.204915  0.829318  0.465975
Te10627  Te  0.216279  0.835897  0.500000
Mo5317  Mo  0.220067  0.829318  0.482988
Te10628  Te  0.216279  0.835897  0.465975
Te10629  Te  0.227642  0.789844  0.500000
Mo5318  Mo  0.231430  0.796423  0.482988
Te10630  Te  0.227642  0.789844  0.465975
Te10631  Te  0.239006  0.796423  0.500000
Mo5319  Mo  0.242794  0.789844  0.482988
Te10632  Te  0.239006  0.796423  0.465975
Te10633  Te  0.227642  0.803002  0.500000
Mo5320  Mo  0.231430  0.809581  0.482988
Te10634  Te  0.227642  0.803002  0.465975
Te10635  Te  0.239006  0.809581  0.500000
Mo5321  Mo  0.242794  0.803002  0.482988
Te10636  Te  0.239006  0.809581  0.465975
Te10637  Te  0.227642  0.816160  0.500000
Mo5322  Mo  0.231430  0.822739  0.482988
Te10638  Te  0.227642  0.816160  0.465975
Te10639  Te  0.239006  0.822739  0.500000
Mo5323  Mo  0.242794  0.816160  0.482988
Te10640  Te  0.239006  0.822739  0.465975
Te10641  Te  0.227642  0.829318  0.500000
Mo5324  Mo  0.231430  0.835897  0.482988
Te10642  Te  0.227642  0.829318  0.465975
Te10643  Te  0.239006  0.835897  0.500000
Mo5325  Mo  0.242794  0.829318  0.482988
Te10644  Te  0.239006  0.835897  0.465975
Te10645  Te  0.250370  0.789844  0.500000
Mo5326  Mo  0.254158  0.796423  0.482988
Te10646  Te  0.250370  0.789844  0.465975
Te10647  Te  0.261733  0.796423  0.500000
Mo5327  Mo  0.265521  0.789844  0.482988
Te10648  Te  0.261733  0.796423  0.465975
Te10649  Te  0.250370  0.803002  0.500000
Mo5328  Mo  0.254158  0.809581  0.482988
Te10650  Te  0.250370  0.803002  0.465975
Te10651  Te  0.261733  0.809581  0.500000
Mo5329  Mo  0.265521  0.803002  0.482988
Te10652  Te  0.261733  0.809581  0.465975
Te10653  Te  0.250370  0.816160  0.500000
Mo5330  Mo  0.254158  0.822739  0.482988
Te10654  Te  0.250370  0.816160  0.465975
Te10655  Te  0.261733  0.822739  0.500000
Mo5331  Mo  0.265521  0.816160  0.482988
Te10656  Te  0.261733  0.822739  0.465975
Te10657  Te  0.250370  0.829318  0.500000
Mo5332  Mo  0.254158  0.835897  0.482988
Te10658  Te  0.250370  0.829318  0.465975
Te10659  Te  0.261733  0.835897  0.500000
Mo5333  Mo  0.265521  0.829318  0.482988
Te10660  Te  0.261733  0.835897  0.465975
Te10661  Te  0.273097  0.789844  0.500000
Mo5334  Mo  0.276885  0.796423  0.482988
Te10662  Te  0.273097  0.789844  0.465975
Te10663  Te  0.284461  0.796423  0.500000
Mo5335  Mo  0.288248  0.789844  0.482988
Te10664  Te  0.284461  0.796423  0.465975
Te10665  Te  0.273097  0.803002  0.500000
Mo5336  Mo  0.276885  0.809581  0.482988
Te10666  Te  0.273097  0.803002  0.465975
Te10667  Te  0.284461  0.809581  0.500000
Mo5337  Mo  0.288248  0.803002  0.482988
Te10668  Te  0.284461  0.809581  0.465975
Te10669  Te  0.273097  0.816160  0.500000
Mo5338  Mo  0.276885  0.822739  0.482988
Te10670  Te  0.273097  0.816160  0.465975
Te10671  Te  0.284461  0.822739  0.500000
Mo5339  Mo  0.288248  0.816160  0.482988
Te10672  Te  0.284461  0.822739  0.465975
Te10673  Te  0.273097  0.829318  0.500000
Mo5340  Mo  0.276885  0.835897  0.482988
Te10674  Te  0.273097  0.829318  0.465975
Te10675  Te  0.284461  0.835897  0.500000
Mo5341  Mo  0.288248  0.829318  0.482988
Te10676  Te  0.284461  0.835897  0.465975
Te10677  Te  0.295824  0.789844  0.500000
Mo5342  Mo  0.299612  0.796423  0.482988
Te10678  Te  0.295824  0.789844  0.465975
Te10679  Te  0.307188  0.796423  0.500000
Mo5343  Mo  0.310976  0.789844  0.482988
Te10680  Te  0.307188  0.796423  0.465975
Te10681  Te  0.295824  0.803002  0.500000
Mo5344  Mo  0.299612  0.809581  0.482988
Te10682  Te  0.295824  0.803002  0.465975
Te10683  Te  0.307188  0.809581  0.500000
Mo5345  Mo  0.310976  0.803002  0.482988
Te10684  Te  0.307188  0.809581  0.465975
Te10685  Te  0.295824  0.816160  0.500000
Mo5346  Mo  0.299612  0.822739  0.482988
Te10686  Te  0.295824  0.816160  0.465975
Te10687  Te  0.307188  0.822739  0.500000
Mo5347  Mo  0.310976  0.816160  0.482988
Te10688  Te  0.307188  0.822739  0.465975
Te10689  Te  0.295824  0.829318  0.500000
Mo5348  Mo  0.299612  0.835897  0.482988
Te10690  Te  0.295824  0.829318  0.465975
Te10691  Te  0.307188  0.835897  0.500000
Mo5349  Mo  0.310976  0.829318  0.482988
Te10692  Te  0.307188  0.835897  0.465975
Te10693  Te  0.318551  0.789844  0.500000
Mo5350  Mo  0.322339  0.796423  0.482988
Te10694  Te  0.318551  0.789844  0.465975
Te10695  Te  0.329915  0.796423  0.500000
Mo5351  Mo  0.333703  0.789844  0.482988
Te10696  Te  0.329915  0.796423  0.465975
Te10697  Te  0.318551  0.803002  0.500000
Mo5352  Mo  0.322339  0.809581  0.482988
Te10698  Te  0.318551  0.803002  0.465975
Te10699  Te  0.329915  0.809581  0.500000
Mo5353  Mo  0.333703  0.803002  0.482988
Te10700  Te  0.329915  0.809581  0.465975
Te10701  Te  0.318551  0.816160  0.500000
Mo5354  Mo  0.322339  0.822739  0.482988
Te10702  Te  0.318551  0.816160  0.465975
Te10703  Te  0.329915  0.822739  0.500000
Mo5355  Mo  0.333703  0.816160  0.482988
Te10704  Te  0.329915  0.822739  0.465975
Te10705  Te  0.318551  0.829318  0.500000
Mo5356  Mo  0.322339  0.835897  0.482988
Te10706  Te  0.318551  0.829318  0.465975
Te10707  Te  0.329915  0.835897  0.500000
Mo5357  Mo  0.333703  0.829318  0.482988
Te10708  Te  0.329915  0.835897  0.465975
Te10709  Te  0.341279  0.789844  0.500000
Mo5358  Mo  0.345067  0.796423  0.482988
Te10710  Te  0.341279  0.789844  0.465975
Te10711  Te  0.352642  0.796423  0.500000
Mo5359  Mo  0.356430  0.789844  0.482988
Te10712  Te  0.352642  0.796423  0.465975
Te10713  Te  0.341279  0.803002  0.500000
Mo5360  Mo  0.345067  0.809581  0.482988
Te10714  Te  0.341279  0.803002  0.465975
Te10715  Te  0.352642  0.809581  0.500000
Mo5361  Mo  0.356430  0.803002  0.482988
Te10716  Te  0.352642  0.809581  0.465975
Te10717  Te  0.341279  0.816160  0.500000
Mo5362  Mo  0.345067  0.822739  0.482988
Te10718  Te  0.341279  0.816160  0.465975
Te10719  Te  0.352642  0.822739  0.500000
Mo5363  Mo  0.356430  0.816160  0.482988
Te10720  Te  0.352642  0.822739  0.465975
Te10721  Te  0.341279  0.829318  0.500000
Mo5364  Mo  0.345067  0.835897  0.482988
Te10722  Te  0.341279  0.829318  0.465975
Te10723  Te  0.352642  0.835897  0.500000
Mo5365  Mo  0.356430  0.829318  0.482988
Te10724  Te  0.352642  0.835897  0.465975
Te10725  Te  0.364006  0.789844  0.500000
Mo5366  Mo  0.367794  0.796423  0.482988
Te10726  Te  0.364006  0.789844  0.465975
Te10727  Te  0.375370  0.796423  0.500000
Mo5367  Mo  0.379158  0.789844  0.482988
Te10728  Te  0.375370  0.796423  0.465975
Te10729  Te  0.364006  0.803002  0.500000
Mo5368  Mo  0.367794  0.809581  0.482988
Te10730  Te  0.364006  0.803002  0.465975
Te10731  Te  0.375370  0.809581  0.500000
Mo5369  Mo  0.379158  0.803002  0.482988
Te10732  Te  0.375370  0.809581  0.465975
Te10733  Te  0.364006  0.816160  0.500000
Mo5370  Mo  0.367794  0.822739  0.482988
Te10734  Te  0.364006  0.816160  0.465975
Te10735  Te  0.375370  0.822739  0.500000
Mo5371  Mo  0.379158  0.816160  0.482988
Te10736  Te  0.375370  0.822739  0.465975
Te10737  Te  0.364006  0.829318  0.500000
Mo5372  Mo  0.367794  0.835897  0.482988
Te10738  Te  0.364006  0.829318  0.465975
Te10739  Te  0.375370  0.835897  0.500000
Mo5373  Mo  0.379158  0.829318  0.482988
Te10740  Te  0.375370  0.835897  0.465975
Te10741  Te  0.386733  0.789844  0.500000
Mo5374  Mo  0.390521  0.796423  0.482988
Te10742  Te  0.386733  0.789844  0.465975
Te10743  Te  0.398097  0.796423  0.500000
Mo5375  Mo  0.401885  0.789844  0.482988
Te10744  Te  0.398097  0.796423  0.465975
Te10745  Te  0.386733  0.803002  0.500000
Mo5376  Mo  0.390521  0.809581  0.482988
Te10746  Te  0.386733  0.803002  0.465975
Te10747  Te  0.398097  0.809581  0.500000
Mo5377  Mo  0.401885  0.803002  0.482988
Te10748  Te  0.398097  0.809581  0.465975
Te10749  Te  0.386733  0.816160  0.500000
Mo5378  Mo  0.390521  0.822739  0.482988
Te10750  Te  0.386733  0.816160  0.465975
Te10751  Te  0.398097  0.822739  0.500000
Mo5379  Mo  0.401885  0.816160  0.482988
Te10752  Te  0.398097  0.822739  0.465975
Te10753  Te  0.386733  0.829318  0.500000
Mo5380  Mo  0.390521  0.835897  0.482988
Te10754  Te  0.386733  0.829318  0.465975
Te10755  Te  0.398097  0.835897  0.500000
Mo5381  Mo  0.401885  0.829318  0.482988
Te10756  Te  0.398097  0.835897  0.465975
Te10757  Te  0.409461  0.789844  0.500000
Mo5382  Mo  0.413248  0.796423  0.482988
Te10758  Te  0.409461  0.789844  0.465975
Te10759  Te  0.420824  0.796423  0.500000
Mo5383  Mo  0.424612  0.789844  0.482988
Te10760  Te  0.420824  0.796423  0.465975
Te10761  Te  0.409461  0.803002  0.500000
Mo5384  Mo  0.413248  0.809581  0.482988
Te10762  Te  0.409461  0.803002  0.465975
Te10763  Te  0.420824  0.809581  0.500000
Mo5385  Mo  0.424612  0.803002  0.482988
Te10764  Te  0.420824  0.809581  0.465975
Te10765  Te  0.409461  0.816160  0.500000
Mo5386  Mo  0.413248  0.822739  0.482988
Te10766  Te  0.409461  0.816160  0.465975
Te10767  Te  0.420824  0.822739  0.500000
Mo5387  Mo  0.424612  0.816160  0.482988
Te10768  Te  0.420824  0.822739  0.465975
Te10769  Te  0.409461  0.829318  0.500000
Mo5388  Mo  0.413248  0.835897  0.482988
Te10770  Te  0.409461  0.829318  0.465975
Te10771  Te  0.420824  0.835897  0.500000
Mo5389  Mo  0.424612  0.829318  0.482988
Te10772  Te  0.420824  0.835897  0.465975
Te10773  Te  0.432188  0.789844  0.500000
Mo5390  Mo  0.435976  0.796423  0.482988
Te10774  Te  0.432188  0.789844  0.465975
Te10775  Te  0.443552  0.796423  0.500000
Mo5391  Mo  0.447339  0.789844  0.482988
Te10776  Te  0.443552  0.796423  0.465975
Te10777  Te  0.432188  0.803002  0.500000
Mo5392  Mo  0.435976  0.809581  0.482988
Te10778  Te  0.432188  0.803002  0.465975
Te10779  Te  0.443552  0.809581  0.500000
Mo5393  Mo  0.447339  0.803002  0.482988
Te10780  Te  0.443552  0.809581  0.465975
Te10781  Te  0.432188  0.816160  0.500000
Mo5394  Mo  0.435976  0.822739  0.482988
Te10782  Te  0.432188  0.816160  0.465975
Te10783  Te  0.443552  0.822739  0.500000
Mo5395  Mo  0.447339  0.816160  0.482988
Te10784  Te  0.443552  0.822739  0.465975
Te10785  Te  0.432188  0.829318  0.500000
Mo5396  Mo  0.435976  0.835897  0.482988
Te10786  Te  0.432188  0.829318  0.465975
Te10787  Te  0.443552  0.835897  0.500000
Mo5397  Mo  0.447339  0.829318  0.482988
Te10788  Te  0.443552  0.835897  0.465975
Te10789  Te  0.454915  0.789844  0.500000
Mo5398  Mo  0.458703  0.796423  0.482988
Te10790  Te  0.454915  0.789844  0.465975
Te10791  Te  0.466279  0.796423  0.500000
Mo5399  Mo  0.470067  0.789844  0.482988
Te10792  Te  0.466279  0.796423  0.465975
Te10793  Te  0.454915  0.803002  0.500000
Mo5400  Mo  0.458703  0.809581  0.482988
Te10794  Te  0.454915  0.803002  0.465975
Te10795  Te  0.466279  0.809581  0.500000
Mo5401  Mo  0.470067  0.803002  0.482988
Te10796  Te  0.466279  0.809581  0.465975
Te10797  Te  0.454915  0.816160  0.500000
Mo5402  Mo  0.458703  0.822739  0.482988
Te10798  Te  0.454915  0.816160  0.465975
Te10799  Te  0.466279  0.822739  0.500000
Mo5403  Mo  0.470067  0.816160  0.482988
Te10800  Te  0.466279  0.822739  0.465975
Te10801  Te  0.454915  0.829318  0.500000
Mo5404  Mo  0.458703  0.835897  0.482988
Te10802  Te  0.454915  0.829318  0.465975
Te10803  Te  0.466279  0.835897  0.500000
Mo5405  Mo  0.470067  0.829318  0.482988
Te10804  Te  0.466279  0.835897  0.465975
Te10805  Te  0.477642  0.789844  0.500000
Mo5406  Mo  0.481430  0.796423  0.482988
Te10806  Te  0.477642  0.789844  0.465975
Te10807  Te  0.489006  0.796423  0.500000
Mo5407  Mo  0.492794  0.789844  0.482988
Te10808  Te  0.489006  0.796423  0.465975
Te10809  Te  0.477642  0.803002  0.500000
Mo5408  Mo  0.481430  0.809581  0.482988
Te10810  Te  0.477642  0.803002  0.465975
Te10811  Te  0.489006  0.809581  0.500000
Mo5409  Mo  0.492794  0.803002  0.482988
Te10812  Te  0.489006  0.809581  0.465975
Te10813  Te  0.477642  0.816160  0.500000
Mo5410  Mo  0.481430  0.822739  0.482988
Te10814  Te  0.477642  0.816160  0.465975
Te10815  Te  0.489006  0.822739  0.500000
Mo5411  Mo  0.492794  0.816160  0.482988
Te10816  Te  0.489006  0.822739  0.465975
Te10817  Te  0.477642  0.829318  0.500000
Mo5412  Mo  0.481430  0.835897  0.482988
Te10818  Te  0.477642  0.829318  0.465975
Te10819  Te  0.489006  0.835897  0.500000
Mo5413  Mo  0.492794  0.829318  0.482988
Te10820  Te  0.489006  0.835897  0.465975
Te10821  Te  0.500370  0.789844  0.500000
Mo5414  Mo  0.504158  0.796423  0.482988
Te10822  Te  0.500370  0.789844  0.465975
Te10823  Te  0.511733  0.796423  0.500000
Mo5415  Mo  0.515521  0.789844  0.482988
Te10824  Te  0.511733  0.796423  0.465975
Te10825  Te  0.500370  0.803002  0.500000
Mo5416  Mo  0.504158  0.809581  0.482988
Te10826  Te  0.500370  0.803002  0.465975
Te10827  Te  0.511733  0.809581  0.500000
Mo5417  Mo  0.515521  0.803002  0.482988
Te10828  Te  0.511733  0.809581  0.465975
Te10829  Te  0.500370  0.816160  0.500000
Mo5418  Mo  0.504158  0.822739  0.482988
Te10830  Te  0.500370  0.816160  0.465975
Te10831  Te  0.511733  0.822739  0.500000
Mo5419  Mo  0.515521  0.816160  0.482988
Te10832  Te  0.511733  0.822739  0.465975
Te10833  Te  0.500370  0.829318  0.500000
Mo5420  Mo  0.504158  0.835897  0.482988
Te10834  Te  0.500370  0.829318  0.465975
Te10835  Te  0.511733  0.835897  0.500000
Mo5421  Mo  0.515521  0.829318  0.482988
Te10836  Te  0.511733  0.835897  0.465975
Te10837  Te  0.523097  0.789844  0.500000
Mo5422  Mo  0.526885  0.796423  0.482988
Te10838  Te  0.523097  0.789844  0.465975
Te10839  Te  0.534461  0.796423  0.500000
Mo5423  Mo  0.538249  0.789844  0.482988
Te10840  Te  0.534461  0.796423  0.465975
Te10841  Te  0.523097  0.803002  0.500000
Mo5424  Mo  0.526885  0.809581  0.482988
Te10842  Te  0.523097  0.803002  0.465975
Te10843  Te  0.534461  0.809581  0.500000
Mo5425  Mo  0.538249  0.803002  0.482988
Te10844  Te  0.534461  0.809581  0.465975
Te10845  Te  0.523097  0.816160  0.500000
Mo5426  Mo  0.526885  0.822739  0.482988
Te10846  Te  0.523097  0.816160  0.465975
Te10847  Te  0.534461  0.822739  0.500000
Mo5427  Mo  0.538249  0.816160  0.482988
Te10848  Te  0.534461  0.822739  0.465975
Te10849  Te  0.523097  0.829318  0.500000
Mo5428  Mo  0.526885  0.835897  0.482988
Te10850  Te  0.523097  0.829318  0.465975
Te10851  Te  0.534461  0.835897  0.500000
Mo5429  Mo  0.538249  0.829318  0.482988
Te10852  Te  0.534461  0.835897  0.465975
Te10853  Te  0.545824  0.789844  0.500000
Mo5430  Mo  0.549612  0.796423  0.482988
Te10854  Te  0.545824  0.789844  0.465975
Te10855  Te  0.557188  0.796423  0.500000
Mo5431  Mo  0.560976  0.789844  0.482988
Te10856  Te  0.557188  0.796423  0.465975
Te10857  Te  0.545824  0.803002  0.500000
Mo5432  Mo  0.549612  0.809581  0.482988
Te10858  Te  0.545824  0.803002  0.465975
Te10859  Te  0.557188  0.809581  0.500000
Mo5433  Mo  0.560976  0.803002  0.482988
Te10860  Te  0.557188  0.809581  0.465975
Te10861  Te  0.545824  0.816160  0.500000
Mo5434  Mo  0.549612  0.822739  0.482988
Te10862  Te  0.545824  0.816160  0.465975
Te10863  Te  0.557188  0.822739  0.500000
Mo5435  Mo  0.560976  0.816160  0.482988
Te10864  Te  0.557188  0.822739  0.465975
Te10865  Te  0.545824  0.829318  0.500000
Mo5436  Mo  0.549612  0.835897  0.482988
Te10866  Te  0.545824  0.829318  0.465975
Te10867  Te  0.557188  0.835897  0.500000
Mo5437  Mo  0.560976  0.829318  0.482988
Te10868  Te  0.557188  0.835897  0.465975
Te10869  Te  0.568552  0.789844  0.500000
Mo5438  Mo  0.572339  0.796423  0.482988
Te10870  Te  0.568552  0.789844  0.465975
Te10871  Te  0.579915  0.796423  0.500000
Mo5439  Mo  0.583703  0.789844  0.482988
Te10872  Te  0.579915  0.796423  0.465975
Te10873  Te  0.568552  0.803002  0.500000
Mo5440  Mo  0.572339  0.809581  0.482988
Te10874  Te  0.568552  0.803002  0.465975
Te10875  Te  0.579915  0.809581  0.500000
Mo5441  Mo  0.583703  0.803002  0.482988
Te10876  Te  0.579915  0.809581  0.465975
Te10877  Te  0.568552  0.816160  0.500000
Mo5442  Mo  0.572339  0.822739  0.482988
Te10878  Te  0.568552  0.816160  0.465975
Te10879  Te  0.579915  0.822739  0.500000
Mo5443  Mo  0.583703  0.816160  0.482988
Te10880  Te  0.579915  0.822739  0.465975
Te10881  Te  0.568552  0.829318  0.500000
Mo5444  Mo  0.572339  0.835897  0.482988
Te10882  Te  0.568552  0.829318  0.465975
Te10883  Te  0.579915  0.835897  0.500000
Mo5445  Mo  0.583703  0.829318  0.482988
Te10884  Te  0.579915  0.835897  0.465975
Te10885  Te  0.591279  0.789844  0.500000
Mo5446  Mo  0.595067  0.796423  0.482988
Te10886  Te  0.591279  0.789844  0.465975
Te10887  Te  0.602642  0.796423  0.500000
Mo5447  Mo  0.606430  0.789844  0.482988
Te10888  Te  0.602642  0.796423  0.465975
Te10889  Te  0.591279  0.803002  0.500000
Mo5448  Mo  0.595067  0.809581  0.482988
Te10890  Te  0.591279  0.803002  0.465975
Te10891  Te  0.602642  0.809581  0.500000
Mo5449  Mo  0.606430  0.803002  0.482988
Te10892  Te  0.602642  0.809581  0.465975
Te10893  Te  0.591279  0.816160  0.500000
Mo5450  Mo  0.595067  0.822739  0.482988
Te10894  Te  0.591279  0.816160  0.465975
Te10895  Te  0.602642  0.822739  0.500000
Mo5451  Mo  0.606430  0.816160  0.482988
Te10896  Te  0.602642  0.822739  0.465975
Te10897  Te  0.591279  0.829318  0.500000
Mo5452  Mo  0.595067  0.835897  0.482988
Te10898  Te  0.591279  0.829318  0.465975
Te10899  Te  0.602642  0.835897  0.500000
Mo5453  Mo  0.606430  0.829318  0.482988
Te10900  Te  0.602642  0.835897  0.465975
Te10901  Te  0.614006  0.789844  0.500000
Mo5454  Mo  0.617794  0.796423  0.482988
Te10902  Te  0.614006  0.789844  0.465975
Te10903  Te  0.625370  0.796423  0.500000
Mo5455  Mo  0.629158  0.789844  0.482988
Te10904  Te  0.625370  0.796423  0.465975
Te10905  Te  0.614006  0.803002  0.500000
Mo5456  Mo  0.617794  0.809581  0.482988
Te10906  Te  0.614006  0.803002  0.465975
Te10907  Te  0.625370  0.809581  0.500000
Mo5457  Mo  0.629158  0.803002  0.482988
Te10908  Te  0.625370  0.809581  0.465975
Te10909  Te  0.614006  0.816160  0.500000
Mo5458  Mo  0.617794  0.822739  0.482988
Te10910  Te  0.614006  0.816160  0.465975
Te10911  Te  0.625370  0.822739  0.500000
Mo5459  Mo  0.629158  0.816160  0.482988
Te10912  Te  0.625370  0.822739  0.465975
Te10913  Te  0.614006  0.829318  0.500000
Mo5460  Mo  0.617794  0.835897  0.482988
Te10914  Te  0.614006  0.829318  0.465975
Te10915  Te  0.625370  0.835897  0.500000
Mo5461  Mo  0.629158  0.829318  0.482988
Te10916  Te  0.625370  0.835897  0.465975
Te10917  Te  0.636733  0.789844  0.500000
Mo5462  Mo  0.640521  0.796423  0.482988
Te10918  Te  0.636733  0.789844  0.465975
Te10919  Te  0.648097  0.796423  0.500000
Mo5463  Mo  0.651885  0.789844  0.482988
Te10920  Te  0.648097  0.796423  0.465975
Te10921  Te  0.636733  0.803002  0.500000
Mo5464  Mo  0.640521  0.809581  0.482988
Te10922  Te  0.636733  0.803002  0.465975
Te10923  Te  0.648097  0.809581  0.500000
Mo5465  Mo  0.651885  0.803002  0.482988
Te10924  Te  0.648097  0.809581  0.465975
Te10925  Te  0.636733  0.816160  0.500000
Mo5466  Mo  0.640521  0.822739  0.482988
Te10926  Te  0.636733  0.816160  0.465975
Te10927  Te  0.648097  0.822739  0.500000
Mo5467  Mo  0.651885  0.816160  0.482988
Te10928  Te  0.648097  0.822739  0.465975
Te10929  Te  0.636733  0.829318  0.500000
Mo5468  Mo  0.640521  0.835897  0.482988
Te10930  Te  0.636733  0.829318  0.465975
Te10931  Te  0.648097  0.835897  0.500000
Mo5469  Mo  0.651885  0.829318  0.482988
Te10932  Te  0.648097  0.835897  0.465975
Te10933  Te  0.659461  0.789844  0.500000
Mo5470  Mo  0.663248  0.796423  0.482988
Te10934  Te  0.659461  0.789844  0.465975
Te10935  Te  0.670824  0.796423  0.500000
Mo5471  Mo  0.674612  0.789844  0.482988
Te10936  Te  0.670824  0.796423  0.465975
Te10937  Te  0.659461  0.803002  0.500000
Mo5472  Mo  0.663248  0.809581  0.482988
Te10938  Te  0.659461  0.803002  0.465975
Te10939  Te  0.670824  0.809581  0.500000
Mo5473  Mo  0.674612  0.803002  0.482988
Te10940  Te  0.670824  0.809581  0.465975
Te10941  Te  0.659461  0.816160  0.500000
Mo5474  Mo  0.663248  0.822739  0.482988
Te10942  Te  0.659461  0.816160  0.465975
Te10943  Te  0.670824  0.822739  0.500000
Mo5475  Mo  0.674612  0.816160  0.482988
Te10944  Te  0.670824  0.822739  0.465975
Te10945  Te  0.659461  0.829318  0.500000
Mo5476  Mo  0.663248  0.835897  0.482988
Te10946  Te  0.659461  0.829318  0.465975
Te10947  Te  0.670824  0.835897  0.500000
Mo5477  Mo  0.674612  0.829318  0.482988
Te10948  Te  0.670824  0.835897  0.465975
Te10949  Te  0.682188  0.789844  0.500000
Mo5478  Mo  0.685976  0.796423  0.482988
Te10950  Te  0.682188  0.789844  0.465975
Te10951  Te  0.693551  0.796423  0.500000
Mo5479  Mo  0.697339  0.789844  0.482988
Te10952  Te  0.693551  0.796423  0.465975
Te10953  Te  0.682188  0.803002  0.500000
Mo5480  Mo  0.685976  0.809581  0.482988
Te10954  Te  0.682188  0.803002  0.465975
Te10955  Te  0.693551  0.809581  0.500000
Mo5481  Mo  0.697339  0.803002  0.482988
Te10956  Te  0.693551  0.809581  0.465975
Te10957  Te  0.682188  0.816160  0.500000
Mo5482  Mo  0.685976  0.822739  0.482988
Te10958  Te  0.682188  0.816160  0.465975
Te10959  Te  0.693551  0.822739  0.500000
Mo5483  Mo  0.697339  0.816160  0.482988
Te10960  Te  0.693551  0.822739  0.465975
Te10961  Te  0.682188  0.829318  0.500000
Mo5484  Mo  0.685976  0.835897  0.482988
Te10962  Te  0.682188  0.829318  0.465975
Te10963  Te  0.693551  0.835897  0.500000
Mo5485  Mo  0.697339  0.829318  0.482988
Te10964  Te  0.693551  0.835897  0.465975
Te10965  Te  0.704915  0.789844  0.500000
Mo5486  Mo  0.708703  0.796423  0.482988
Te10966  Te  0.704915  0.789844  0.465975
Te10967  Te  0.716279  0.796423  0.500000
Mo5487  Mo  0.720067  0.789844  0.482988
Te10968  Te  0.716279  0.796423  0.465975
Te10969  Te  0.704915  0.803002  0.500000
Mo5488  Mo  0.708703  0.809581  0.482988
Te10970  Te  0.704915  0.803002  0.465975
Te10971  Te  0.716279  0.809581  0.500000
Mo5489  Mo  0.720067  0.803002  0.482988
Te10972  Te  0.716279  0.809581  0.465975
Te10973  Te  0.704915  0.816160  0.500000
Mo5490  Mo  0.708703  0.822739  0.482988
Te10974  Te  0.704915  0.816160  0.465975
Te10975  Te  0.716279  0.822739  0.500000
Mo5491  Mo  0.720067  0.816160  0.482988
Te10976  Te  0.716279  0.822739  0.465975
Te10977  Te  0.704915  0.829318  0.500000
Mo5492  Mo  0.708703  0.835897  0.482988
Te10978  Te  0.704915  0.829318  0.465975
Te10979  Te  0.716279  0.835897  0.500000
Mo5493  Mo  0.720067  0.829318  0.482988
Te10980  Te  0.716279  0.835897  0.465975
Te10981  Te  0.727642  0.789844  0.500000
Mo5494  Mo  0.731430  0.796423  0.482988
Te10982  Te  0.727642  0.789844  0.465975
Te10983  Te  0.739006  0.796423  0.500000
Mo5495  Mo  0.742794  0.789844  0.482988
Te10984  Te  0.739006  0.796423  0.465975
Te10985  Te  0.727642  0.803002  0.500000
Mo5496  Mo  0.731430  0.809581  0.482988
Te10986  Te  0.727642  0.803002  0.465975
Te10987  Te  0.739006  0.809581  0.500000
Mo5497  Mo  0.742794  0.803002  0.482988
Te10988  Te  0.739006  0.809581  0.465975
Te10989  Te  0.727642  0.816160  0.500000
Mo5498  Mo  0.731430  0.822739  0.482988
Te10990  Te  0.727642  0.816160  0.465975
Te10991  Te  0.739006  0.822739  0.500000
Mo5499  Mo  0.742794  0.816160  0.482988
Te10992  Te  0.739006  0.822739  0.465975
Te10993  Te  0.727642  0.829318  0.500000
Mo5500  Mo  0.731430  0.835897  0.482988
Te10994  Te  0.727642  0.829318  0.465975
Te10995  Te  0.739006  0.835897  0.500000
Mo5501  Mo  0.742794  0.829318  0.482988
Te10996  Te  0.739006  0.835897  0.465975
Te10997  Te  0.750370  0.789844  0.500000
Mo5502  Mo  0.754158  0.796423  0.482988
Te10998  Te  0.750370  0.789844  0.465975
Te10999  Te  0.761733  0.796423  0.500000
Mo5503  Mo  0.765521  0.789844  0.482988
Te11000  Te  0.761733  0.796423  0.465975
Te11001  Te  0.750370  0.803002  0.500000
Mo5504  Mo  0.754158  0.809581  0.482988
Te11002  Te  0.750370  0.803002  0.465975
Te11003  Te  0.761733  0.809581  0.500000
Mo5505  Mo  0.765521  0.803002  0.482988
Te11004  Te  0.761733  0.809581  0.465975
Te11005  Te  0.750370  0.816160  0.500000
Mo5506  Mo  0.754158  0.822739  0.482988
Te11006  Te  0.750370  0.816160  0.465975
Te11007  Te  0.761733  0.822739  0.500000
Mo5507  Mo  0.765521  0.816160  0.482988
Te11008  Te  0.761733  0.822739  0.465975
Te11009  Te  0.750370  0.829318  0.500000
Mo5508  Mo  0.754158  0.835897  0.482988
Te11010  Te  0.750370  0.829318  0.465975
Te11011  Te  0.761733  0.835897  0.500000
Mo5509  Mo  0.765521  0.829318  0.482988
Te11012  Te  0.761733  0.835897  0.465975
Te11013  Te  0.773097  0.789844  0.500000
Mo5510  Mo  0.776885  0.796423  0.482988
Te11014  Te  0.773097  0.789844  0.465975
Te11015  Te  0.784461  0.796423  0.500000
Mo5511  Mo  0.788248  0.789844  0.482988
Te11016  Te  0.784461  0.796423  0.465975
Te11017  Te  0.773097  0.803002  0.500000
Mo5512  Mo  0.776885  0.809581  0.482988
Te11018  Te  0.773097  0.803002  0.465975
Te11019  Te  0.784461  0.809581  0.500000
Mo5513  Mo  0.788248  0.803002  0.482988
Te11020  Te  0.784461  0.809581  0.465975
Te11021  Te  0.773097  0.816160  0.500000
Mo5514  Mo  0.776885  0.822739  0.482988
Te11022  Te  0.773097  0.816160  0.465975
Te11023  Te  0.784461  0.822739  0.500000
Mo5515  Mo  0.788248  0.816160  0.482988
Te11024  Te  0.784461  0.822739  0.465975
Te11025  Te  0.773097  0.829318  0.500000
Mo5516  Mo  0.776885  0.835897  0.482988
Te11026  Te  0.773097  0.829318  0.465975
Te11027  Te  0.784461  0.835897  0.500000
Mo5517  Mo  0.788248  0.829318  0.482988
Te11028  Te  0.784461  0.835897  0.465975
Te11029  Te  0.795824  0.789844  0.500000
Mo5518  Mo  0.799612  0.796423  0.482988
Te11030  Te  0.795824  0.789844  0.465975
Te11031  Te  0.807188  0.796423  0.500000
Mo5519  Mo  0.810976  0.789844  0.482988
Te11032  Te  0.807188  0.796423  0.465975
Te11033  Te  0.795824  0.803002  0.500000
Mo5520  Mo  0.799612  0.809581  0.482988
Te11034  Te  0.795824  0.803002  0.465975
Te11035  Te  0.807188  0.809581  0.500000
Mo5521  Mo  0.810976  0.803002  0.482988
Te11036  Te  0.807188  0.809581  0.465975
Te11037  Te  0.795824  0.816160  0.500000
Mo5522  Mo  0.799612  0.822739  0.482988
Te11038  Te  0.795824  0.816160  0.465975
Te11039  Te  0.807188  0.822739  0.500000
Mo5523  Mo  0.810976  0.816160  0.482988
Te11040  Te  0.807188  0.822739  0.465975
Te11041  Te  0.795824  0.829318  0.500000
Mo5524  Mo  0.799612  0.835897  0.482988
Te11042  Te  0.795824  0.829318  0.465975
Te11043  Te  0.807188  0.835897  0.500000
Mo5525  Mo  0.810976  0.829318  0.482988
Te11044  Te  0.807188  0.835897  0.465975
Te11045  Te  0.818551  0.789844  0.500000
Mo5526  Mo  0.822339  0.796423  0.482988
Te11046  Te  0.818551  0.789844  0.465975
Te11047  Te  0.829915  0.796423  0.500000
Mo5527  Mo  0.833703  0.789844  0.482988
Te11048  Te  0.829915  0.796423  0.465975
Te11049  Te  0.818551  0.803002  0.500000
Mo5528  Mo  0.822339  0.809581  0.482988
Te11050  Te  0.818551  0.803002  0.465975
Te11051  Te  0.829915  0.809581  0.500000
Mo5529  Mo  0.833703  0.803002  0.482988
Te11052  Te  0.829915  0.809581  0.465975
Te11053  Te  0.818551  0.816160  0.500000
Mo5530  Mo  0.822339  0.822739  0.482988
Te11054  Te  0.818551  0.816160  0.465975
Te11055  Te  0.829915  0.822739  0.500000
Mo5531  Mo  0.833703  0.816160  0.482988
Te11056  Te  0.829915  0.822739  0.465975
Te11057  Te  0.818551  0.829318  0.500000
Mo5532  Mo  0.822339  0.835897  0.482988
Te11058  Te  0.818551  0.829318  0.465975
Te11059  Te  0.829915  0.835897  0.500000
Mo5533  Mo  0.833703  0.829318  0.482988
Te11060  Te  0.829915  0.835897  0.465975
Te11061  Te  0.841279  0.789844  0.500000
Mo5534  Mo  0.845067  0.796423  0.482988
Te11062  Te  0.841279  0.789844  0.465975
Te11063  Te  0.852642  0.796423  0.500000
Mo5535  Mo  0.856430  0.789844  0.482988
Te11064  Te  0.852642  0.796423  0.465975
Te11065  Te  0.841279  0.803002  0.500000
Mo5536  Mo  0.845067  0.809581  0.482988
Te11066  Te  0.841279  0.803002  0.465975
Te11067  Te  0.852642  0.809581  0.500000
Mo5537  Mo  0.856430  0.803002  0.482988
Te11068  Te  0.852642  0.809581  0.465975
Te11069  Te  0.841279  0.816160  0.500000
Mo5538  Mo  0.845067  0.822739  0.482988
Te11070  Te  0.841279  0.816160  0.465975
Te11071  Te  0.852642  0.822739  0.500000
Mo5539  Mo  0.856430  0.816160  0.482988
Te11072  Te  0.852642  0.822739  0.465975
Te11073  Te  0.841279  0.829318  0.500000
Mo5540  Mo  0.845067  0.835897  0.482988
Te11074  Te  0.841279  0.829318  0.465975
Te11075  Te  0.852642  0.835897  0.500000
Mo5541  Mo  0.856430  0.829318  0.482988
Te11076  Te  0.852642  0.835897  0.465975
Te11077  Te  0.864006  0.789844  0.500000
Mo5542  Mo  0.867794  0.796423  0.482988
Te11078  Te  0.864006  0.789844  0.465975
Te11079  Te  0.875370  0.796423  0.500000
Mo5543  Mo  0.879158  0.789844  0.482988
Te11080  Te  0.875370  0.796423  0.465975
Te11081  Te  0.864006  0.803002  0.500000
Mo5544  Mo  0.867794  0.809581  0.482988
Te11082  Te  0.864006  0.803002  0.465975
Te11083  Te  0.875370  0.809581  0.500000
Mo5545  Mo  0.879158  0.803002  0.482988
Te11084  Te  0.875370  0.809581  0.465975
Te11085  Te  0.864006  0.816160  0.500000
Mo5546  Mo  0.867794  0.822739  0.482988
Te11086  Te  0.864006  0.816160  0.465975
Te11087  Te  0.875370  0.822739  0.500000
Mo5547  Mo  0.879158  0.816160  0.482988
Te11088  Te  0.875370  0.822739  0.465975
Te11089  Te  0.864006  0.829318  0.500000
Mo5548  Mo  0.867794  0.835897  0.482988
Te11090  Te  0.864006  0.829318  0.465975
Te11091  Te  0.875370  0.835897  0.500000
Mo5549  Mo  0.879158  0.829318  0.482988
Te11092  Te  0.875370  0.835897  0.465975
Te11093  Te  0.886733  0.789844  0.500000
Mo5550  Mo  0.890521  0.796423  0.482988
Te11094  Te  0.886733  0.789844  0.465975
Te11095  Te  0.898097  0.796423  0.500000
Mo5551  Mo  0.901885  0.789844  0.482988
Te11096  Te  0.898097  0.796423  0.465975
Te11097  Te  0.886733  0.803002  0.500000
Mo5552  Mo  0.890521  0.809581  0.482988
Te11098  Te  0.886733  0.803002  0.465975
Te11099  Te  0.898097  0.809581  0.500000
Mo5553  Mo  0.901885  0.803002  0.482988
Te11100  Te  0.898097  0.809581  0.465975
Te11101  Te  0.886733  0.816160  0.500000
Mo5554  Mo  0.890521  0.822739  0.482988
Te11102  Te  0.886733  0.816160  0.465975
Te11103  Te  0.898097  0.822739  0.500000
Mo5555  Mo  0.901885  0.816160  0.482988
Te11104  Te  0.898097  0.822739  0.465975
Te11105  Te  0.886733  0.829318  0.500000
Mo5556  Mo  0.890521  0.835897  0.482988
Te11106  Te  0.886733  0.829318  0.465975
Te11107  Te  0.898097  0.835897  0.500000
Mo5557  Mo  0.901885  0.829318  0.482988
Te11108  Te  0.898097  0.835897  0.465975
Te11109  Te  0.909461  0.789844  0.500000
Mo5558  Mo  0.913248  0.796423  0.482988
Te11110  Te  0.909461  0.789844  0.465975
Te11111  Te  0.920824  0.796423  0.500000
Mo5559  Mo  0.924612  0.789844  0.482988
Te11112  Te  0.920824  0.796423  0.465975
Te11113  Te  0.909461  0.803002  0.500000
Mo5560  Mo  0.913248  0.809581  0.482988
Te11114  Te  0.909461  0.803002  0.465975
Te11115  Te  0.920824  0.809581  0.500000
Mo5561  Mo  0.924612  0.803002  0.482988
Te11116  Te  0.920824  0.809581  0.465975
Te11117  Te  0.909461  0.816160  0.500000
Mo5562  Mo  0.913248  0.822739  0.482988
Te11118  Te  0.909461  0.816160  0.465975
Te11119  Te  0.920824  0.822739  0.500000
Mo5563  Mo  0.924612  0.816160  0.482988
Te11120  Te  0.920824  0.822739  0.465975
Te11121  Te  0.909461  0.829318  0.500000
Mo5564  Mo  0.913248  0.835897  0.482988
Te11122  Te  0.909461  0.829318  0.465975
Te11123  Te  0.920824  0.835897  0.500000
Mo5565  Mo  0.924612  0.829318  0.482988
Te11124  Te  0.920824  0.835897  0.465975
Te11125  Te  0.932188  0.789844  0.500000
Mo5566  Mo  0.935976  0.796423  0.482988
Te11126  Te  0.932188  0.789844  0.465975
Te11127  Te  0.943552  0.796423  0.500000
Mo5567  Mo  0.947339  0.789844  0.482988
Te11128  Te  0.943552  0.796423  0.465975
Te11129  Te  0.932188  0.803002  0.500000
Mo5568  Mo  0.935976  0.809581  0.482988
Te11130  Te  0.932188  0.803002  0.465975
Te11131  Te  0.943552  0.809581  0.500000
Mo5569  Mo  0.947339  0.803002  0.482988
Te11132  Te  0.943552  0.809581  0.465975
Te11133  Te  0.932188  0.816160  0.500000
Mo5570  Mo  0.935976  0.822739  0.482988
Te11134  Te  0.932188  0.816160  0.465975
Te11135  Te  0.943552  0.822739  0.500000
Mo5571  Mo  0.947339  0.816160  0.482988
Te11136  Te  0.943552  0.822739  0.465975
Te11137  Te  0.932188  0.829318  0.500000
Mo5572  Mo  0.935976  0.835897  0.482988
Te11138  Te  0.932188  0.829318  0.465975
Te11139  Te  0.943552  0.835897  0.500000
Mo5573  Mo  0.947339  0.829318  0.482988
Te11140  Te  0.943552  0.835897  0.465975
Te11141  Te  0.954915  0.789844  0.500000
Mo5574  Mo  0.958703  0.796423  0.482988
Te11142  Te  0.954915  0.789844  0.465975
Te11143  Te  0.966279  0.796423  0.500000
Mo5575  Mo  0.970067  0.789844  0.482988
Te11144  Te  0.966279  0.796423  0.465975
Te11145  Te  0.954915  0.803002  0.500000
Mo5576  Mo  0.958703  0.809581  0.482988
Te11146  Te  0.954915  0.803002  0.465975
Te11147  Te  0.966279  0.809581  0.500000
Mo5577  Mo  0.970067  0.803002  0.482988
Te11148  Te  0.966279  0.809581  0.465975
Te11149  Te  0.954915  0.816160  0.500000
Mo5578  Mo  0.958703  0.822739  0.482988
Te11150  Te  0.954915  0.816160  0.465975
Te11151  Te  0.966279  0.822739  0.500000
Mo5579  Mo  0.970067  0.816160  0.482988
Te11152  Te  0.966279  0.822739  0.465975
Te11153  Te  0.954915  0.829318  0.500000
Mo5580  Mo  0.958703  0.835897  0.482988
Te11154  Te  0.954915  0.829318  0.465975
Te11155  Te  0.966279  0.835897  0.500000
Mo5581  Mo  0.970067  0.829318  0.482988
Te11156  Te  0.966279  0.835897  0.465975
Te11157  Te  0.977642  0.789844  0.500000
Mo5582  Mo  0.981430  0.796423  0.482988
Te11158  Te  0.977642  0.789844  0.465975
Te11159  Te  0.989006  0.796423  0.500000
Mo5583  Mo  0.992794  0.789844  0.482988
Te11160  Te  0.989006  0.796423  0.465975
Te11161  Te  0.977642  0.803002  0.500000
Mo5584  Mo  0.981430  0.809581  0.482988
Te11162  Te  0.977642  0.803002  0.465975
Te11163  Te  0.989006  0.809581  0.500000
Mo5585  Mo  0.992794  0.803002  0.482988
Te11164  Te  0.989006  0.809581  0.465975
Te11165  Te  0.977642  0.816160  0.500000
Mo5586  Mo  0.981430  0.822739  0.482988
Te11166  Te  0.977642  0.816160  0.465975
Te11167  Te  0.989006  0.822739  0.500000
Mo5587  Mo  0.992794  0.816160  0.482988
Te11168  Te  0.989006  0.822739  0.465975
Te11169  Te  0.977642  0.829318  0.500000
Mo5588  Mo  0.981430  0.835897  0.482988
Te11170  Te  0.977642  0.829318  0.465975
Te11171  Te  0.989006  0.835897  0.500000
Mo5589  Mo  0.992794  0.829318  0.482988
Te11172  Te  0.989006  0.835897  0.465975
Te11173  Te  0.000370  0.842476  0.500000
Mo5590  Mo  0.004158  0.849055  0.482988
Te11174  Te  0.000370  0.842476  0.465975
Te11175  Te  0.011733  0.849055  0.500000
Mo5591  Mo  0.015521  0.842476  0.482988
Te11176  Te  0.011733  0.849055  0.465975
Te11177  Te  0.000370  0.855634  0.500000
Mo5592  Mo  0.004158  0.862213  0.482988
Te11178  Te  0.000370  0.855634  0.465975
Te11179  Te  0.011733  0.862213  0.500000
Mo5593  Mo  0.015521  0.855634  0.482988
Te11180  Te  0.011733  0.862213  0.465975
Te11181  Te  0.000370  0.868792  0.500000
Mo5594  Mo  0.004158  0.875371  0.482988
Te11182  Te  0.000370  0.868792  0.465975
Te11183  Te  0.011733  0.875371  0.500000
Mo5595  Mo  0.015521  0.868792  0.482988
Te11184  Te  0.011733  0.875371  0.465975
Te11185  Te  0.000370  0.881950  0.500000
Mo5596  Mo  0.004158  0.888529  0.482988
Te11186  Te  0.000370  0.881950  0.465975
Te11187  Te  0.011733  0.888529  0.500000
Mo5597  Mo  0.015521  0.881950  0.482988
Te11188  Te  0.011733  0.888529  0.465975
Te11189  Te  0.023097  0.842476  0.500000
Mo5598  Mo  0.026885  0.849055  0.482988
Te11190  Te  0.023097  0.842476  0.465975
Te11191  Te  0.034461  0.849055  0.500000
Mo5599  Mo  0.038249  0.842476  0.482988
Te11192  Te  0.034461  0.849055  0.465975
Te11193  Te  0.023097  0.855634  0.500000
Mo5600  Mo  0.026885  0.862213  0.482988
Te11194  Te  0.023097  0.855634  0.465975
Te11195  Te  0.034461  0.862213  0.500000
Mo5601  Mo  0.038249  0.855634  0.482988
Te11196  Te  0.034461  0.862213  0.465975
Te11197  Te  0.023097  0.868792  0.500000
Mo5602  Mo  0.026885  0.875371  0.482988
Te11198  Te  0.023097  0.868792  0.465975
Te11199  Te  0.034461  0.875371  0.500000
Mo5603  Mo  0.038249  0.868792  0.482988
Te11200  Te  0.034461  0.875371  0.465975
Te11201  Te  0.023097  0.881950  0.500000
Mo5604  Mo  0.026885  0.888529  0.482988
Te11202  Te  0.023097  0.881950  0.465975
Te11203  Te  0.034461  0.888529  0.500000
Mo5605  Mo  0.038249  0.881950  0.482988
Te11204  Te  0.034461  0.888529  0.465975
Te11205  Te  0.045824  0.842476  0.500000
Mo5606  Mo  0.049612  0.849055  0.482988
Te11206  Te  0.045824  0.842476  0.465975
Te11207  Te  0.057188  0.849055  0.500000
Mo5607  Mo  0.060976  0.842476  0.482988
Te11208  Te  0.057188  0.849055  0.465975
Te11209  Te  0.045824  0.855634  0.500000
Mo5608  Mo  0.049612  0.862213  0.482988
Te11210  Te  0.045824  0.855634  0.465975
Te11211  Te  0.057188  0.862213  0.500000
Mo5609  Mo  0.060976  0.855634  0.482988
Te11212  Te  0.057188  0.862213  0.465975
Te11213  Te  0.045824  0.868792  0.500000
Mo5610  Mo  0.049612  0.875371  0.482988
Te11214  Te  0.045824  0.868792  0.465975
Te11215  Te  0.057188  0.875371  0.500000
Mo5611  Mo  0.060976  0.868792  0.482988
Te11216  Te  0.057188  0.875371  0.465975
Te11217  Te  0.045824  0.881950  0.500000
Mo5612  Mo  0.049612  0.888529  0.482988
Te11218  Te  0.045824  0.881950  0.465975
Te11219  Te  0.057188  0.888529  0.500000
Mo5613  Mo  0.060976  0.881950  0.482988
Te11220  Te  0.057188  0.888529  0.465975
Te11221  Te  0.068552  0.842476  0.500000
Mo5614  Mo  0.072339  0.849055  0.482988
Te11222  Te  0.068552  0.842476  0.465975
Te11223  Te  0.079915  0.849055  0.500000
Mo5615  Mo  0.083703  0.842476  0.482988
Te11224  Te  0.079915  0.849055  0.465975
Te11225  Te  0.068552  0.855634  0.500000
Mo5616  Mo  0.072339  0.862213  0.482988
Te11226  Te  0.068552  0.855634  0.465975
Te11227  Te  0.079915  0.862213  0.500000
Mo5617  Mo  0.083703  0.855634  0.482988
Te11228  Te  0.079915  0.862213  0.465975
Te11229  Te  0.068552  0.868792  0.500000
Mo5618  Mo  0.072339  0.875371  0.482988
Te11230  Te  0.068552  0.868792  0.465975
Te11231  Te  0.079915  0.875371  0.500000
Mo5619  Mo  0.083703  0.868792  0.482988
Te11232  Te  0.079915  0.875371  0.465975
Te11233  Te  0.068552  0.881950  0.500000
Mo5620  Mo  0.072339  0.888529  0.482988
Te11234  Te  0.068552  0.881950  0.465975
Te11235  Te  0.079915  0.888529  0.500000
Mo5621  Mo  0.083703  0.881950  0.482988
Te11236  Te  0.079915  0.888529  0.465975
Te11237  Te  0.091279  0.842476  0.500000
Mo5622  Mo  0.095067  0.849055  0.482988
Te11238  Te  0.091279  0.842476  0.465975
Te11239  Te  0.102642  0.849055  0.500000
Mo5623  Mo  0.106430  0.842476  0.482988
Te11240  Te  0.102642  0.849055  0.465975
Te11241  Te  0.091279  0.855634  0.500000
Mo5624  Mo  0.095067  0.862213  0.482988
Te11242  Te  0.091279  0.855634  0.465975
Te11243  Te  0.102642  0.862213  0.500000
Mo5625  Mo  0.106430  0.855634  0.482988
Te11244  Te  0.102642  0.862213  0.465975
Te11245  Te  0.091279  0.868792  0.500000
Mo5626  Mo  0.095067  0.875371  0.482988
Te11246  Te  0.091279  0.868792  0.465975
Te11247  Te  0.102642  0.875371  0.500000
Mo5627  Mo  0.106430  0.868792  0.482988
Te11248  Te  0.102642  0.875371  0.465975
Te11249  Te  0.091279  0.881950  0.500000
Mo5628  Mo  0.095067  0.888529  0.482988
Te11250  Te  0.091279  0.881950  0.465975
Te11251  Te  0.102642  0.888529  0.500000
Mo5629  Mo  0.106430  0.881950  0.482988
Te11252  Te  0.102642  0.888529  0.465975
Te11253  Te  0.114006  0.842476  0.500000
Mo5630  Mo  0.117794  0.849055  0.482988
Te11254  Te  0.114006  0.842476  0.465975
Te11255  Te  0.125370  0.849055  0.500000
Mo5631  Mo  0.129158  0.842476  0.482988
Te11256  Te  0.125370  0.849055  0.465975
Te11257  Te  0.114006  0.855634  0.500000
Mo5632  Mo  0.117794  0.862213  0.482988
Te11258  Te  0.114006  0.855634  0.465975
Te11259  Te  0.125370  0.862213  0.500000
Mo5633  Mo  0.129158  0.855634  0.482988
Te11260  Te  0.125370  0.862213  0.465975
Te11261  Te  0.114006  0.868792  0.500000
Mo5634  Mo  0.117794  0.875371  0.482988
Te11262  Te  0.114006  0.868792  0.465975
Te11263  Te  0.125370  0.875371  0.500000
Mo5635  Mo  0.129158  0.868792  0.482988
Te11264  Te  0.125370  0.875371  0.465975
Te11265  Te  0.114006  0.881950  0.500000
Mo5636  Mo  0.117794  0.888529  0.482988
Te11266  Te  0.114006  0.881950  0.465975
Te11267  Te  0.125370  0.888529  0.500000
Mo5637  Mo  0.129158  0.881950  0.482988
Te11268  Te  0.125370  0.888529  0.465975
Te11269  Te  0.136733  0.842476  0.500000
Mo5638  Mo  0.140521  0.849055  0.482988
Te11270  Te  0.136733  0.842476  0.465975
Te11271  Te  0.148097  0.849055  0.500000
Mo5639  Mo  0.151885  0.842476  0.482988
Te11272  Te  0.148097  0.849055  0.465975
Te11273  Te  0.136733  0.855634  0.500000
Mo5640  Mo  0.140521  0.862213  0.482988
Te11274  Te  0.136733  0.855634  0.465975
Te11275  Te  0.148097  0.862213  0.500000
Mo5641  Mo  0.151885  0.855634  0.482988
Te11276  Te  0.148097  0.862213  0.465975
Te11277  Te  0.136733  0.868792  0.500000
Mo5642  Mo  0.140521  0.875371  0.482988
Te11278  Te  0.136733  0.868792  0.465975
Te11279  Te  0.148097  0.875371  0.500000
Mo5643  Mo  0.151885  0.868792  0.482988
Te11280  Te  0.148097  0.875371  0.465975
Te11281  Te  0.136733  0.881950  0.500000
Mo5644  Mo  0.140521  0.888529  0.482988
Te11282  Te  0.136733  0.881950  0.465975
Te11283  Te  0.148097  0.888529  0.500000
Mo5645  Mo  0.151885  0.881950  0.482988
Te11284  Te  0.148097  0.888529  0.465975
Te11285  Te  0.159461  0.842476  0.500000
Mo5646  Mo  0.163248  0.849055  0.482988
Te11286  Te  0.159461  0.842476  0.465975
Te11287  Te  0.170824  0.849055  0.500000
Mo5647  Mo  0.174612  0.842476  0.482988
Te11288  Te  0.170824  0.849055  0.465975
Te11289  Te  0.159461  0.855634  0.500000
Mo5648  Mo  0.163248  0.862213  0.482988
Te11290  Te  0.159461  0.855634  0.465975
Te11291  Te  0.170824  0.862213  0.500000
Mo5649  Mo  0.174612  0.855634  0.482988
Te11292  Te  0.170824  0.862213  0.465975
Te11293  Te  0.159461  0.868792  0.500000
Mo5650  Mo  0.163248  0.875371  0.482988
Te11294  Te  0.159461  0.868792  0.465975
Te11295  Te  0.170824  0.875371  0.500000
Mo5651  Mo  0.174612  0.868792  0.482988
Te11296  Te  0.170824  0.875371  0.465975
Te11297  Te  0.159461  0.881950  0.500000
Mo5652  Mo  0.163248  0.888529  0.482988
Te11298  Te  0.159461  0.881950  0.465975
Te11299  Te  0.170824  0.888529  0.500000
Mo5653  Mo  0.174612  0.881950  0.482988
Te11300  Te  0.170824  0.888529  0.465975
Te11301  Te  0.182188  0.842476  0.500000
Mo5654  Mo  0.185976  0.849055  0.482988
Te11302  Te  0.182188  0.842476  0.465975
Te11303  Te  0.193551  0.849055  0.500000
Mo5655  Mo  0.197339  0.842476  0.482988
Te11304  Te  0.193551  0.849055  0.465975
Te11305  Te  0.182188  0.855634  0.500000
Mo5656  Mo  0.185976  0.862213  0.482988
Te11306  Te  0.182188  0.855634  0.465975
Te11307  Te  0.193551  0.862213  0.500000
Mo5657  Mo  0.197339  0.855634  0.482988
Te11308  Te  0.193551  0.862213  0.465975
Te11309  Te  0.182188  0.868792  0.500000
Mo5658  Mo  0.185976  0.875371  0.482988
Te11310  Te  0.182188  0.868792  0.465975
Te11311  Te  0.193551  0.875371  0.500000
Mo5659  Mo  0.197339  0.868792  0.482988
Te11312  Te  0.193551  0.875371  0.465975
Te11313  Te  0.182188  0.881950  0.500000
Mo5660  Mo  0.185976  0.888529  0.482988
Te11314  Te  0.182188  0.881950  0.465975
Te11315  Te  0.193551  0.888529  0.500000
Mo5661  Mo  0.197339  0.881950  0.482988
Te11316  Te  0.193551  0.888529  0.465975
Te11317  Te  0.204915  0.842476  0.500000
Mo5662  Mo  0.208703  0.849055  0.482988
Te11318  Te  0.204915  0.842476  0.465975
Te11319  Te  0.216279  0.849055  0.500000
Mo5663  Mo  0.220067  0.842476  0.482988
Te11320  Te  0.216279  0.849055  0.465975
Te11321  Te  0.204915  0.855634  0.500000
Mo5664  Mo  0.208703  0.862213  0.482988
Te11322  Te  0.204915  0.855634  0.465975
Te11323  Te  0.216279  0.862213  0.500000
Mo5665  Mo  0.220067  0.855634  0.482988
Te11324  Te  0.216279  0.862213  0.465975
Te11325  Te  0.204915  0.868792  0.500000
Mo5666  Mo  0.208703  0.875371  0.482988
Te11326  Te  0.204915  0.868792  0.465975
Te11327  Te  0.216279  0.875371  0.500000
Mo5667  Mo  0.220067  0.868792  0.482988
Te11328  Te  0.216279  0.875371  0.465975
Te11329  Te  0.204915  0.881950  0.500000
Mo5668  Mo  0.208703  0.888529  0.482988
Te11330  Te  0.204915  0.881950  0.465975
Te11331  Te  0.216279  0.888529  0.500000
Mo5669  Mo  0.220067  0.881950  0.482988
Te11332  Te  0.216279  0.888529  0.465975
Te11333  Te  0.227642  0.842476  0.500000
Mo5670  Mo  0.231430  0.849055  0.482988
Te11334  Te  0.227642  0.842476  0.465975
Te11335  Te  0.239006  0.849055  0.500000
Mo5671  Mo  0.242794  0.842476  0.482988
Te11336  Te  0.239006  0.849055  0.465975
Te11337  Te  0.227642  0.855634  0.500000
Mo5672  Mo  0.231430  0.862213  0.482988
Te11338  Te  0.227642  0.855634  0.465975
Te11339  Te  0.239006  0.862213  0.500000
Mo5673  Mo  0.242794  0.855634  0.482988
Te11340  Te  0.239006  0.862213  0.465975
Te11341  Te  0.227642  0.868792  0.500000
Mo5674  Mo  0.231430  0.875371  0.482988
Te11342  Te  0.227642  0.868792  0.465975
Te11343  Te  0.239006  0.875371  0.500000
Mo5675  Mo  0.242794  0.868792  0.482988
Te11344  Te  0.239006  0.875371  0.465975
Te11345  Te  0.227642  0.881950  0.500000
Mo5676  Mo  0.231430  0.888529  0.482988
Te11346  Te  0.227642  0.881950  0.465975
Te11347  Te  0.239006  0.888529  0.500000
Mo5677  Mo  0.242794  0.881950  0.482988
Te11348  Te  0.239006  0.888529  0.465975
Te11349  Te  0.250370  0.842476  0.500000
Mo5678  Mo  0.254158  0.849055  0.482988
Te11350  Te  0.250370  0.842476  0.465975
Te11351  Te  0.261733  0.849055  0.500000
Mo5679  Mo  0.265521  0.842476  0.482988
Te11352  Te  0.261733  0.849055  0.465975
Te11353  Te  0.250370  0.855634  0.500000
Mo5680  Mo  0.254158  0.862213  0.482988
Te11354  Te  0.250370  0.855634  0.465975
Te11355  Te  0.261733  0.862213  0.500000
Mo5681  Mo  0.265521  0.855634  0.482988
Te11356  Te  0.261733  0.862213  0.465975
Te11357  Te  0.250370  0.868792  0.500000
Mo5682  Mo  0.254158  0.875371  0.482988
Te11358  Te  0.250370  0.868792  0.465975
Te11359  Te  0.261733  0.875371  0.500000
Mo5683  Mo  0.265521  0.868792  0.482988
Te11360  Te  0.261733  0.875371  0.465975
Te11361  Te  0.250370  0.881950  0.500000
Mo5684  Mo  0.254158  0.888529  0.482988
Te11362  Te  0.250370  0.881950  0.465975
Te11363  Te  0.261733  0.888529  0.500000
Mo5685  Mo  0.265521  0.881950  0.482988
Te11364  Te  0.261733  0.888529  0.465975
Te11365  Te  0.273097  0.842476  0.500000
Mo5686  Mo  0.276885  0.849055  0.482988
Te11366  Te  0.273097  0.842476  0.465975
Te11367  Te  0.284461  0.849055  0.500000
Mo5687  Mo  0.288248  0.842476  0.482988
Te11368  Te  0.284461  0.849055  0.465975
Te11369  Te  0.273097  0.855634  0.500000
Mo5688  Mo  0.276885  0.862213  0.482988
Te11370  Te  0.273097  0.855634  0.465975
Te11371  Te  0.284461  0.862213  0.500000
Mo5689  Mo  0.288248  0.855634  0.482988
Te11372  Te  0.284461  0.862213  0.465975
Te11373  Te  0.273097  0.868792  0.500000
Mo5690  Mo  0.276885  0.875371  0.482988
Te11374  Te  0.273097  0.868792  0.465975
Te11375  Te  0.284461  0.875371  0.500000
Mo5691  Mo  0.288248  0.868792  0.482988
Te11376  Te  0.284461  0.875371  0.465975
Te11377  Te  0.273097  0.881950  0.500000
Mo5692  Mo  0.276885  0.888529  0.482988
Te11378  Te  0.273097  0.881950  0.465975
Te11379  Te  0.284461  0.888529  0.500000
Mo5693  Mo  0.288248  0.881950  0.482988
Te11380  Te  0.284461  0.888529  0.465975
Te11381  Te  0.295824  0.842476  0.500000
Mo5694  Mo  0.299612  0.849055  0.482988
Te11382  Te  0.295824  0.842476  0.465975
Te11383  Te  0.307188  0.849055  0.500000
Mo5695  Mo  0.310976  0.842476  0.482988
Te11384  Te  0.307188  0.849055  0.465975
Te11385  Te  0.295824  0.855634  0.500000
Mo5696  Mo  0.299612  0.862213  0.482988
Te11386  Te  0.295824  0.855634  0.465975
Te11387  Te  0.307188  0.862213  0.500000
Mo5697  Mo  0.310976  0.855634  0.482988
Te11388  Te  0.307188  0.862213  0.465975
Te11389  Te  0.295824  0.868792  0.500000
Mo5698  Mo  0.299612  0.875371  0.482988
Te11390  Te  0.295824  0.868792  0.465975
Te11391  Te  0.307188  0.875371  0.500000
Mo5699  Mo  0.310976  0.868792  0.482988
Te11392  Te  0.307188  0.875371  0.465975
Te11393  Te  0.295824  0.881950  0.500000
Mo5700  Mo  0.299612  0.888529  0.482988
Te11394  Te  0.295824  0.881950  0.465975
Te11395  Te  0.307188  0.888529  0.500000
Mo5701  Mo  0.310976  0.881950  0.482988
Te11396  Te  0.307188  0.888529  0.465975
Te11397  Te  0.318551  0.842476  0.500000
Mo5702  Mo  0.322339  0.849055  0.482988
Te11398  Te  0.318551  0.842476  0.465975
Te11399  Te  0.329915  0.849055  0.500000
Mo5703  Mo  0.333703  0.842476  0.482988
Te11400  Te  0.329915  0.849055  0.465975
Te11401  Te  0.318551  0.855634  0.500000
Mo5704  Mo  0.322339  0.862213  0.482988
Te11402  Te  0.318551  0.855634  0.465975
Te11403  Te  0.329915  0.862213  0.500000
Mo5705  Mo  0.333703  0.855634  0.482988
Te11404  Te  0.329915  0.862213  0.465975
Te11405  Te  0.318551  0.868792  0.500000
Mo5706  Mo  0.322339  0.875371  0.482988
Te11406  Te  0.318551  0.868792  0.465975
Te11407  Te  0.329915  0.875371  0.500000
Mo5707  Mo  0.333703  0.868792  0.482988
Te11408  Te  0.329915  0.875371  0.465975
Te11409  Te  0.318551  0.881950  0.500000
Mo5708  Mo  0.322339  0.888529  0.482988
Te11410  Te  0.318551  0.881950  0.465975
Te11411  Te  0.329915  0.888529  0.500000
Mo5709  Mo  0.333703  0.881950  0.482988
Te11412  Te  0.329915  0.888529  0.465975
Te11413  Te  0.341279  0.842476  0.500000
Mo5710  Mo  0.345067  0.849055  0.482988
Te11414  Te  0.341279  0.842476  0.465975
Te11415  Te  0.352642  0.849055  0.500000
Mo5711  Mo  0.356430  0.842476  0.482988
Te11416  Te  0.352642  0.849055  0.465975
Te11417  Te  0.341279  0.855634  0.500000
Mo5712  Mo  0.345067  0.862213  0.482988
Te11418  Te  0.341279  0.855634  0.465975
Te11419  Te  0.352642  0.862213  0.500000
Mo5713  Mo  0.356430  0.855634  0.482988
Te11420  Te  0.352642  0.862213  0.465975
Te11421  Te  0.341279  0.868792  0.500000
Mo5714  Mo  0.345067  0.875371  0.482988
Te11422  Te  0.341279  0.868792  0.465975
Te11423  Te  0.352642  0.875371  0.500000
Mo5715  Mo  0.356430  0.868792  0.482988
Te11424  Te  0.352642  0.875371  0.465975
Te11425  Te  0.341279  0.881950  0.500000
Mo5716  Mo  0.345067  0.888529  0.482988
Te11426  Te  0.341279  0.881950  0.465975
Te11427  Te  0.352642  0.888529  0.500000
Mo5717  Mo  0.356430  0.881950  0.482988
Te11428  Te  0.352642  0.888529  0.465975
Te11429  Te  0.364006  0.842476  0.500000
Mo5718  Mo  0.367794  0.849055  0.482988
Te11430  Te  0.364006  0.842476  0.465975
Te11431  Te  0.375370  0.849055  0.500000
Mo5719  Mo  0.379158  0.842476  0.482988
Te11432  Te  0.375370  0.849055  0.465975
Te11433  Te  0.364006  0.855634  0.500000
Mo5720  Mo  0.367794  0.862213  0.482988
Te11434  Te  0.364006  0.855634  0.465975
Te11435  Te  0.375370  0.862213  0.500000
Mo5721  Mo  0.379158  0.855634  0.482988
Te11436  Te  0.375370  0.862213  0.465975
Te11437  Te  0.364006  0.868792  0.500000
Mo5722  Mo  0.367794  0.875371  0.482988
Te11438  Te  0.364006  0.868792  0.465975
Te11439  Te  0.375370  0.875371  0.500000
Mo5723  Mo  0.379158  0.868792  0.482988
Te11440  Te  0.375370  0.875371  0.465975
Te11441  Te  0.364006  0.881950  0.500000
Mo5724  Mo  0.367794  0.888529  0.482988
Te11442  Te  0.364006  0.881950  0.465975
Te11443  Te  0.375370  0.888529  0.500000
Mo5725  Mo  0.379158  0.881950  0.482988
Te11444  Te  0.375370  0.888529  0.465975
Te11445  Te  0.386733  0.842476  0.500000
Mo5726  Mo  0.390521  0.849055  0.482988
Te11446  Te  0.386733  0.842476  0.465975
Te11447  Te  0.398097  0.849055  0.500000
Mo5727  Mo  0.401885  0.842476  0.482988
Te11448  Te  0.398097  0.849055  0.465975
Te11449  Te  0.386733  0.855634  0.500000
Mo5728  Mo  0.390521  0.862213  0.482988
Te11450  Te  0.386733  0.855634  0.465975
Te11451  Te  0.398097  0.862213  0.500000
Mo5729  Mo  0.401885  0.855634  0.482988
Te11452  Te  0.398097  0.862213  0.465975
Te11453  Te  0.386733  0.868792  0.500000
Mo5730  Mo  0.390521  0.875371  0.482988
Te11454  Te  0.386733  0.868792  0.465975
Te11455  Te  0.398097  0.875371  0.500000
Mo5731  Mo  0.401885  0.868792  0.482988
Te11456  Te  0.398097  0.875371  0.465975
Te11457  Te  0.386733  0.881950  0.500000
Mo5732  Mo  0.390521  0.888529  0.482988
Te11458  Te  0.386733  0.881950  0.465975
Te11459  Te  0.398097  0.888529  0.500000
Mo5733  Mo  0.401885  0.881950  0.482988
Te11460  Te  0.398097  0.888529  0.465975
Te11461  Te  0.409461  0.842476  0.500000
Mo5734  Mo  0.413248  0.849055  0.482988
Te11462  Te  0.409461  0.842476  0.465975
Te11463  Te  0.420824  0.849055  0.500000
Mo5735  Mo  0.424612  0.842476  0.482988
Te11464  Te  0.420824  0.849055  0.465975
Te11465  Te  0.409461  0.855634  0.500000
Mo5736  Mo  0.413248  0.862213  0.482988
Te11466  Te  0.409461  0.855634  0.465975
Te11467  Te  0.420824  0.862213  0.500000
Mo5737  Mo  0.424612  0.855634  0.482988
Te11468  Te  0.420824  0.862213  0.465975
Te11469  Te  0.409461  0.868792  0.500000
Mo5738  Mo  0.413248  0.875371  0.482988
Te11470  Te  0.409461  0.868792  0.465975
Te11471  Te  0.420824  0.875371  0.500000
Mo5739  Mo  0.424612  0.868792  0.482988
Te11472  Te  0.420824  0.875371  0.465975
Te11473  Te  0.409461  0.881950  0.500000
Mo5740  Mo  0.413248  0.888529  0.482988
Te11474  Te  0.409461  0.881950  0.465975
Te11475  Te  0.420824  0.888529  0.500000
Mo5741  Mo  0.424612  0.881950  0.482988
Te11476  Te  0.420824  0.888529  0.465975
Te11477  Te  0.432188  0.842476  0.500000
Mo5742  Mo  0.435976  0.849055  0.482988
Te11478  Te  0.432188  0.842476  0.465975
Te11479  Te  0.443552  0.849055  0.500000
Mo5743  Mo  0.447339  0.842476  0.482988
Te11480  Te  0.443552  0.849055  0.465975
Te11481  Te  0.432188  0.855634  0.500000
Mo5744  Mo  0.435976  0.862213  0.482988
Te11482  Te  0.432188  0.855634  0.465975
Te11483  Te  0.443552  0.862213  0.500000
Mo5745  Mo  0.447339  0.855634  0.482988
Te11484  Te  0.443552  0.862213  0.465975
Te11485  Te  0.432188  0.868792  0.500000
Mo5746  Mo  0.435976  0.875371  0.482988
Te11486  Te  0.432188  0.868792  0.465975
Te11487  Te  0.443552  0.875371  0.500000
Mo5747  Mo  0.447339  0.868792  0.482988
Te11488  Te  0.443552  0.875371  0.465975
Te11489  Te  0.432188  0.881950  0.500000
Mo5748  Mo  0.435976  0.888529  0.482988
Te11490  Te  0.432188  0.881950  0.465975
Te11491  Te  0.443552  0.888529  0.500000
Mo5749  Mo  0.447339  0.881950  0.482988
Te11492  Te  0.443552  0.888529  0.465975
Te11493  Te  0.454915  0.842476  0.500000
Mo5750  Mo  0.458703  0.849055  0.482988
Te11494  Te  0.454915  0.842476  0.465975
Te11495  Te  0.466279  0.849055  0.500000
Mo5751  Mo  0.470067  0.842476  0.482988
Te11496  Te  0.466279  0.849055  0.465975
Te11497  Te  0.454915  0.855634  0.500000
Mo5752  Mo  0.458703  0.862213  0.482988
Te11498  Te  0.454915  0.855634  0.465975
Te11499  Te  0.466279  0.862213  0.500000
Mo5753  Mo  0.470067  0.855634  0.482988
Te11500  Te  0.466279  0.862213  0.465975
Te11501  Te  0.454915  0.868792  0.500000
Mo5754  Mo  0.458703  0.875371  0.482988
Te11502  Te  0.454915  0.868792  0.465975
Te11503  Te  0.466279  0.875371  0.500000
Mo5755  Mo  0.470067  0.868792  0.482988
Te11504  Te  0.466279  0.875371  0.465975
Te11505  Te  0.454915  0.881950  0.500000
Mo5756  Mo  0.458703  0.888529  0.482988
Te11506  Te  0.454915  0.881950  0.465975
Te11507  Te  0.466279  0.888529  0.500000
Mo5757  Mo  0.470067  0.881950  0.482988
Te11508  Te  0.466279  0.888529  0.465975
Te11509  Te  0.477642  0.842476  0.500000
Mo5758  Mo  0.481430  0.849055  0.482988
Te11510  Te  0.477642  0.842476  0.465975
Te11511  Te  0.489006  0.849055  0.500000
Mo5759  Mo  0.492794  0.842476  0.482988
Te11512  Te  0.489006  0.849055  0.465975
Te11513  Te  0.477642  0.855634  0.500000
Mo5760  Mo  0.481430  0.862213  0.482988
Te11514  Te  0.477642  0.855634  0.465975
Te11515  Te  0.489006  0.862213  0.500000
Mo5761  Mo  0.492794  0.855634  0.482988
Te11516  Te  0.489006  0.862213  0.465975
Te11517  Te  0.477642  0.868792  0.500000
Mo5762  Mo  0.481430  0.875371  0.482988
Te11518  Te  0.477642  0.868792  0.465975
Te11519  Te  0.489006  0.875371  0.500000
Mo5763  Mo  0.492794  0.868792  0.482988
Te11520  Te  0.489006  0.875371  0.465975
Te11521  Te  0.477642  0.881950  0.500000
Mo5764  Mo  0.481430  0.888529  0.482988
Te11522  Te  0.477642  0.881950  0.465975
Te11523  Te  0.489006  0.888529  0.500000
Mo5765  Mo  0.492794  0.881950  0.482988
Te11524  Te  0.489006  0.888529  0.465975
Te11525  Te  0.500370  0.842476  0.500000
Mo5766  Mo  0.504158  0.849055  0.482988
Te11526  Te  0.500370  0.842476  0.465975
Te11527  Te  0.511733  0.849055  0.500000
Mo5767  Mo  0.515521  0.842476  0.482988
Te11528  Te  0.511733  0.849055  0.465975
Te11529  Te  0.500370  0.855634  0.500000
Mo5768  Mo  0.504158  0.862213  0.482988
Te11530  Te  0.500370  0.855634  0.465975
Te11531  Te  0.511733  0.862213  0.500000
Mo5769  Mo  0.515521  0.855634  0.482988
Te11532  Te  0.511733  0.862213  0.465975
Te11533  Te  0.500370  0.868792  0.500000
Mo5770  Mo  0.504158  0.875371  0.482988
Te11534  Te  0.500370  0.868792  0.465975
Te11535  Te  0.511733  0.875371  0.500000
Mo5771  Mo  0.515521  0.868792  0.482988
Te11536  Te  0.511733  0.875371  0.465975
Te11537  Te  0.500370  0.881950  0.500000
Mo5772  Mo  0.504158  0.888529  0.482988
Te11538  Te  0.500370  0.881950  0.465975
Te11539  Te  0.511733  0.888529  0.500000
Mo5773  Mo  0.515521  0.881950  0.482988
Te11540  Te  0.511733  0.888529  0.465975
Te11541  Te  0.523097  0.842476  0.500000
Mo5774  Mo  0.526885  0.849055  0.482988
Te11542  Te  0.523097  0.842476  0.465975
Te11543  Te  0.534461  0.849055  0.500000
Mo5775  Mo  0.538249  0.842476  0.482988
Te11544  Te  0.534461  0.849055  0.465975
Te11545  Te  0.523097  0.855634  0.500000
Mo5776  Mo  0.526885  0.862213  0.482988
Te11546  Te  0.523097  0.855634  0.465975
Te11547  Te  0.534461  0.862213  0.500000
Mo5777  Mo  0.538249  0.855634  0.482988
Te11548  Te  0.534461  0.862213  0.465975
Te11549  Te  0.523097  0.868792  0.500000
Mo5778  Mo  0.526885  0.875371  0.482988
Te11550  Te  0.523097  0.868792  0.465975
Te11551  Te  0.534461  0.875371  0.500000
Mo5779  Mo  0.538249  0.868792  0.482988
Te11552  Te  0.534461  0.875371  0.465975
Te11553  Te  0.523097  0.881950  0.500000
Mo5780  Mo  0.526885  0.888529  0.482988
Te11554  Te  0.523097  0.881950  0.465975
Te11555  Te  0.534461  0.888529  0.500000
Mo5781  Mo  0.538249  0.881950  0.482988
Te11556  Te  0.534461  0.888529  0.465975
Te11557  Te  0.545824  0.842476  0.500000
Mo5782  Mo  0.549612  0.849055  0.482988
Te11558  Te  0.545824  0.842476  0.465975
Te11559  Te  0.557188  0.849055  0.500000
Mo5783  Mo  0.560976  0.842476  0.482988
Te11560  Te  0.557188  0.849055  0.465975
Te11561  Te  0.545824  0.855634  0.500000
Mo5784  Mo  0.549612  0.862213  0.482988
Te11562  Te  0.545824  0.855634  0.465975
Te11563  Te  0.557188  0.862213  0.500000
Mo5785  Mo  0.560976  0.855634  0.482988
Te11564  Te  0.557188  0.862213  0.465975
Te11565  Te  0.545824  0.868792  0.500000
Mo5786  Mo  0.549612  0.875371  0.482988
Te11566  Te  0.545824  0.868792  0.465975
Te11567  Te  0.557188  0.875371  0.500000
Mo5787  Mo  0.560976  0.868792  0.482988
Te11568  Te  0.557188  0.875371  0.465975
Te11569  Te  0.545824  0.881950  0.500000
Mo5788  Mo  0.549612  0.888529  0.482988
Te11570  Te  0.545824  0.881950  0.465975
Te11571  Te  0.557188  0.888529  0.500000
Mo5789  Mo  0.560976  0.881950  0.482988
Te11572  Te  0.557188  0.888529  0.465975
Te11573  Te  0.568552  0.842476  0.500000
Mo5790  Mo  0.572339  0.849055  0.482988
Te11574  Te  0.568552  0.842476  0.465975
Te11575  Te  0.579915  0.849055  0.500000
Mo5791  Mo  0.583703  0.842476  0.482988
Te11576  Te  0.579915  0.849055  0.465975
Te11577  Te  0.568552  0.855634  0.500000
Mo5792  Mo  0.572339  0.862213  0.482988
Te11578  Te  0.568552  0.855634  0.465975
Te11579  Te  0.579915  0.862213  0.500000
Mo5793  Mo  0.583703  0.855634  0.482988
Te11580  Te  0.579915  0.862213  0.465975
Te11581  Te  0.568552  0.868792  0.500000
Mo5794  Mo  0.572339  0.875371  0.482988
Te11582  Te  0.568552  0.868792  0.465975
Te11583  Te  0.579915  0.875371  0.500000
Mo5795  Mo  0.583703  0.868792  0.482988
Te11584  Te  0.579915  0.875371  0.465975
Te11585  Te  0.568552  0.881950  0.500000
Mo5796  Mo  0.572339  0.888529  0.482988
Te11586  Te  0.568552  0.881950  0.465975
Te11587  Te  0.579915  0.888529  0.500000
Mo5797  Mo  0.583703  0.881950  0.482988
Te11588  Te  0.579915  0.888529  0.465975
Te11589  Te  0.591279  0.842476  0.500000
Mo5798  Mo  0.595067  0.849055  0.482988
Te11590  Te  0.591279  0.842476  0.465975
Te11591  Te  0.602642  0.849055  0.500000
Mo5799  Mo  0.606430  0.842476  0.482988
Te11592  Te  0.602642  0.849055  0.465975
Te11593  Te  0.591279  0.855634  0.500000
Mo5800  Mo  0.595067  0.862213  0.482988
Te11594  Te  0.591279  0.855634  0.465975
Te11595  Te  0.602642  0.862213  0.500000
Mo5801  Mo  0.606430  0.855634  0.482988
Te11596  Te  0.602642  0.862213  0.465975
Te11597  Te  0.591279  0.868792  0.500000
Mo5802  Mo  0.595067  0.875371  0.482988
Te11598  Te  0.591279  0.868792  0.465975
Te11599  Te  0.602642  0.875371  0.500000
Mo5803  Mo  0.606430  0.868792  0.482988
Te11600  Te  0.602642  0.875371  0.465975
Te11601  Te  0.591279  0.881950  0.500000
Mo5804  Mo  0.595067  0.888529  0.482988
Te11602  Te  0.591279  0.881950  0.465975
Te11603  Te  0.602642  0.888529  0.500000
Mo5805  Mo  0.606430  0.881950  0.482988
Te11604  Te  0.602642  0.888529  0.465975
Te11605  Te  0.614006  0.842476  0.500000
Mo5806  Mo  0.617794  0.849055  0.482988
Te11606  Te  0.614006  0.842476  0.465975
Te11607  Te  0.625370  0.849055  0.500000
Mo5807  Mo  0.629158  0.842476  0.482988
Te11608  Te  0.625370  0.849055  0.465975
Te11609  Te  0.614006  0.855634  0.500000
Mo5808  Mo  0.617794  0.862213  0.482988
Te11610  Te  0.614006  0.855634  0.465975
Te11611  Te  0.625370  0.862213  0.500000
Mo5809  Mo  0.629158  0.855634  0.482988
Te11612  Te  0.625370  0.862213  0.465975
Te11613  Te  0.614006  0.868792  0.500000
Mo5810  Mo  0.617794  0.875371  0.482988
Te11614  Te  0.614006  0.868792  0.465975
Te11615  Te  0.625370  0.875371  0.500000
Mo5811  Mo  0.629158  0.868792  0.482988
Te11616  Te  0.625370  0.875371  0.465975
Te11617  Te  0.614006  0.881950  0.500000
Mo5812  Mo  0.617794  0.888529  0.482988
Te11618  Te  0.614006  0.881950  0.465975
Te11619  Te  0.625370  0.888529  0.500000
Mo5813  Mo  0.629158  0.881950  0.482988
Te11620  Te  0.625370  0.888529  0.465975
Te11621  Te  0.636733  0.842476  0.500000
Mo5814  Mo  0.640521  0.849055  0.482988
Te11622  Te  0.636733  0.842476  0.465975
Te11623  Te  0.648097  0.849055  0.500000
Mo5815  Mo  0.651885  0.842476  0.482988
Te11624  Te  0.648097  0.849055  0.465975
Te11625  Te  0.636733  0.855634  0.500000
Mo5816  Mo  0.640521  0.862213  0.482988
Te11626  Te  0.636733  0.855634  0.465975
Te11627  Te  0.648097  0.862213  0.500000
Mo5817  Mo  0.651885  0.855634  0.482988
Te11628  Te  0.648097  0.862213  0.465975
Te11629  Te  0.636733  0.868792  0.500000
Mo5818  Mo  0.640521  0.875371  0.482988
Te11630  Te  0.636733  0.868792  0.465975
Te11631  Te  0.648097  0.875371  0.500000
Mo5819  Mo  0.651885  0.868792  0.482988
Te11632  Te  0.648097  0.875371  0.465975
Te11633  Te  0.636733  0.881950  0.500000
Mo5820  Mo  0.640521  0.888529  0.482988
Te11634  Te  0.636733  0.881950  0.465975
Te11635  Te  0.648097  0.888529  0.500000
Mo5821  Mo  0.651885  0.881950  0.482988
Te11636  Te  0.648097  0.888529  0.465975
Te11637  Te  0.659461  0.842476  0.500000
Mo5822  Mo  0.663248  0.849055  0.482988
Te11638  Te  0.659461  0.842476  0.465975
Te11639  Te  0.670824  0.849055  0.500000
Mo5823  Mo  0.674612  0.842476  0.482988
Te11640  Te  0.670824  0.849055  0.465975
Te11641  Te  0.659461  0.855634  0.500000
Mo5824  Mo  0.663248  0.862213  0.482988
Te11642  Te  0.659461  0.855634  0.465975
Te11643  Te  0.670824  0.862213  0.500000
Mo5825  Mo  0.674612  0.855634  0.482988
Te11644  Te  0.670824  0.862213  0.465975
Te11645  Te  0.659461  0.868792  0.500000
Mo5826  Mo  0.663248  0.875371  0.482988
Te11646  Te  0.659461  0.868792  0.465975
Te11647  Te  0.670824  0.875371  0.500000
Mo5827  Mo  0.674612  0.868792  0.482988
Te11648  Te  0.670824  0.875371  0.465975
Te11649  Te  0.659461  0.881950  0.500000
Mo5828  Mo  0.663248  0.888529  0.482988
Te11650  Te  0.659461  0.881950  0.465975
Te11651  Te  0.670824  0.888529  0.500000
Mo5829  Mo  0.674612  0.881950  0.482988
Te11652  Te  0.670824  0.888529  0.465975
Te11653  Te  0.682188  0.842476  0.500000
Mo5830  Mo  0.685976  0.849055  0.482988
Te11654  Te  0.682188  0.842476  0.465975
Te11655  Te  0.693551  0.849055  0.500000
Mo5831  Mo  0.697339  0.842476  0.482988
Te11656  Te  0.693551  0.849055  0.465975
Te11657  Te  0.682188  0.855634  0.500000
Mo5832  Mo  0.685976  0.862213  0.482988
Te11658  Te  0.682188  0.855634  0.465975
Te11659  Te  0.693551  0.862213  0.500000
Mo5833  Mo  0.697339  0.855634  0.482988
Te11660  Te  0.693551  0.862213  0.465975
Te11661  Te  0.682188  0.868792  0.500000
Mo5834  Mo  0.685976  0.875371  0.482988
Te11662  Te  0.682188  0.868792  0.465975
Te11663  Te  0.693551  0.875371  0.500000
Mo5835  Mo  0.697339  0.868792  0.482988
Te11664  Te  0.693551  0.875371  0.465975
Te11665  Te  0.682188  0.881950  0.500000
Mo5836  Mo  0.685976  0.888529  0.482988
Te11666  Te  0.682188  0.881950  0.465975
Te11667  Te  0.693551  0.888529  0.500000
Mo5837  Mo  0.697339  0.881950  0.482988
Te11668  Te  0.693551  0.888529  0.465975
Te11669  Te  0.704915  0.842476  0.500000
Mo5838  Mo  0.708703  0.849055  0.482988
Te11670  Te  0.704915  0.842476  0.465975
Te11671  Te  0.716279  0.849055  0.500000
Mo5839  Mo  0.720067  0.842476  0.482988
Te11672  Te  0.716279  0.849055  0.465975
Te11673  Te  0.704915  0.855634  0.500000
Mo5840  Mo  0.708703  0.862213  0.482988
Te11674  Te  0.704915  0.855634  0.465975
Te11675  Te  0.716279  0.862213  0.500000
Mo5841  Mo  0.720067  0.855634  0.482988
Te11676  Te  0.716279  0.862213  0.465975
Te11677  Te  0.704915  0.868792  0.500000
Mo5842  Mo  0.708703  0.875371  0.482988
Te11678  Te  0.704915  0.868792  0.465975
Te11679  Te  0.716279  0.875371  0.500000
Mo5843  Mo  0.720067  0.868792  0.482988
Te11680  Te  0.716279  0.875371  0.465975
Te11681  Te  0.704915  0.881950  0.500000
Mo5844  Mo  0.708703  0.888529  0.482988
Te11682  Te  0.704915  0.881950  0.465975
Te11683  Te  0.716279  0.888529  0.500000
Mo5845  Mo  0.720067  0.881950  0.482988
Te11684  Te  0.716279  0.888529  0.465975
Te11685  Te  0.727642  0.842476  0.500000
Mo5846  Mo  0.731430  0.849055  0.482988
Te11686  Te  0.727642  0.842476  0.465975
Te11687  Te  0.739006  0.849055  0.500000
Mo5847  Mo  0.742794  0.842476  0.482988
Te11688  Te  0.739006  0.849055  0.465975
Te11689  Te  0.727642  0.855634  0.500000
Mo5848  Mo  0.731430  0.862213  0.482988
Te11690  Te  0.727642  0.855634  0.465975
Te11691  Te  0.739006  0.862213  0.500000
Mo5849  Mo  0.742794  0.855634  0.482988
Te11692  Te  0.739006  0.862213  0.465975
Te11693  Te  0.727642  0.868792  0.500000
Mo5850  Mo  0.731430  0.875371  0.482988
Te11694  Te  0.727642  0.868792  0.465975
Te11695  Te  0.739006  0.875371  0.500000
Mo5851  Mo  0.742794  0.868792  0.482988
Te11696  Te  0.739006  0.875371  0.465975
Te11697  Te  0.727642  0.881950  0.500000
Mo5852  Mo  0.731430  0.888529  0.482988
Te11698  Te  0.727642  0.881950  0.465975
Te11699  Te  0.739006  0.888529  0.500000
Mo5853  Mo  0.742794  0.881950  0.482988
Te11700  Te  0.739006  0.888529  0.465975
Te11701  Te  0.750370  0.842476  0.500000
Mo5854  Mo  0.754158  0.849055  0.482988
Te11702  Te  0.750370  0.842476  0.465975
Te11703  Te  0.761733  0.849055  0.500000
Mo5855  Mo  0.765521  0.842476  0.482988
Te11704  Te  0.761733  0.849055  0.465975
Te11705  Te  0.750370  0.855634  0.500000
Mo5856  Mo  0.754158  0.862213  0.482988
Te11706  Te  0.750370  0.855634  0.465975
Te11707  Te  0.761733  0.862213  0.500000
Mo5857  Mo  0.765521  0.855634  0.482988
Te11708  Te  0.761733  0.862213  0.465975
Te11709  Te  0.750370  0.868792  0.500000
Mo5858  Mo  0.754158  0.875371  0.482988
Te11710  Te  0.750370  0.868792  0.465975
Te11711  Te  0.761733  0.875371  0.500000
Mo5859  Mo  0.765521  0.868792  0.482988
Te11712  Te  0.761733  0.875371  0.465975
Te11713  Te  0.750370  0.881950  0.500000
Mo5860  Mo  0.754158  0.888529  0.482988
Te11714  Te  0.750370  0.881950  0.465975
Te11715  Te  0.761733  0.888529  0.500000
Mo5861  Mo  0.765521  0.881950  0.482988
Te11716  Te  0.761733  0.888529  0.465975
Te11717  Te  0.773097  0.842476  0.500000
Mo5862  Mo  0.776885  0.849055  0.482988
Te11718  Te  0.773097  0.842476  0.465975
Te11719  Te  0.784461  0.849055  0.500000
Mo5863  Mo  0.788248  0.842476  0.482988
Te11720  Te  0.784461  0.849055  0.465975
Te11721  Te  0.773097  0.855634  0.500000
Mo5864  Mo  0.776885  0.862213  0.482988
Te11722  Te  0.773097  0.855634  0.465975
Te11723  Te  0.784461  0.862213  0.500000
Mo5865  Mo  0.788248  0.855634  0.482988
Te11724  Te  0.784461  0.862213  0.465975
Te11725  Te  0.773097  0.868792  0.500000
Mo5866  Mo  0.776885  0.875371  0.482988
Te11726  Te  0.773097  0.868792  0.465975
Te11727  Te  0.784461  0.875371  0.500000
Mo5867  Mo  0.788248  0.868792  0.482988
Te11728  Te  0.784461  0.875371  0.465975
Te11729  Te  0.773097  0.881950  0.500000
Mo5868  Mo  0.776885  0.888529  0.482988
Te11730  Te  0.773097  0.881950  0.465975
Te11731  Te  0.784461  0.888529  0.500000
Mo5869  Mo  0.788248  0.881950  0.482988
Te11732  Te  0.784461  0.888529  0.465975
Te11733  Te  0.795824  0.842476  0.500000
Mo5870  Mo  0.799612  0.849055  0.482988
Te11734  Te  0.795824  0.842476  0.465975
Te11735  Te  0.807188  0.849055  0.500000
Mo5871  Mo  0.810976  0.842476  0.482988
Te11736  Te  0.807188  0.849055  0.465975
Te11737  Te  0.795824  0.855634  0.500000
Mo5872  Mo  0.799612  0.862213  0.482988
Te11738  Te  0.795824  0.855634  0.465975
Te11739  Te  0.807188  0.862213  0.500000
Mo5873  Mo  0.810976  0.855634  0.482988
Te11740  Te  0.807188  0.862213  0.465975
Te11741  Te  0.795824  0.868792  0.500000
Mo5874  Mo  0.799612  0.875371  0.482988
Te11742  Te  0.795824  0.868792  0.465975
Te11743  Te  0.807188  0.875371  0.500000
Mo5875  Mo  0.810976  0.868792  0.482988
Te11744  Te  0.807188  0.875371  0.465975
Te11745  Te  0.795824  0.881950  0.500000
Mo5876  Mo  0.799612  0.888529  0.482988
Te11746  Te  0.795824  0.881950  0.465975
Te11747  Te  0.807188  0.888529  0.500000
Mo5877  Mo  0.810976  0.881950  0.482988
Te11748  Te  0.807188  0.888529  0.465975
Te11749  Te  0.818551  0.842476  0.500000
Mo5878  Mo  0.822339  0.849055  0.482988
Te11750  Te  0.818551  0.842476  0.465975
Te11751  Te  0.829915  0.849055  0.500000
Mo5879  Mo  0.833703  0.842476  0.482988
Te11752  Te  0.829915  0.849055  0.465975
Te11753  Te  0.818551  0.855634  0.500000
Mo5880  Mo  0.822339  0.862213  0.482988
Te11754  Te  0.818551  0.855634  0.465975
Te11755  Te  0.829915  0.862213  0.500000
Mo5881  Mo  0.833703  0.855634  0.482988
Te11756  Te  0.829915  0.862213  0.465975
Te11757  Te  0.818551  0.868792  0.500000
Mo5882  Mo  0.822339  0.875371  0.482988
Te11758  Te  0.818551  0.868792  0.465975
Te11759  Te  0.829915  0.875371  0.500000
Mo5883  Mo  0.833703  0.868792  0.482988
Te11760  Te  0.829915  0.875371  0.465975
Te11761  Te  0.818551  0.881950  0.500000
Mo5884  Mo  0.822339  0.888529  0.482988
Te11762  Te  0.818551  0.881950  0.465975
Te11763  Te  0.829915  0.888529  0.500000
Mo5885  Mo  0.833703  0.881950  0.482988
Te11764  Te  0.829915  0.888529  0.465975
Te11765  Te  0.841279  0.842476  0.500000
Mo5886  Mo  0.845067  0.849055  0.482988
Te11766  Te  0.841279  0.842476  0.465975
Te11767  Te  0.852642  0.849055  0.500000
Mo5887  Mo  0.856430  0.842476  0.482988
Te11768  Te  0.852642  0.849055  0.465975
Te11769  Te  0.841279  0.855634  0.500000
Mo5888  Mo  0.845067  0.862213  0.482988
Te11770  Te  0.841279  0.855634  0.465975
Te11771  Te  0.852642  0.862213  0.500000
Mo5889  Mo  0.856430  0.855634  0.482988
Te11772  Te  0.852642  0.862213  0.465975
Te11773  Te  0.841279  0.868792  0.500000
Mo5890  Mo  0.845067  0.875371  0.482988
Te11774  Te  0.841279  0.868792  0.465975
Te11775  Te  0.852642  0.875371  0.500000
Mo5891  Mo  0.856430  0.868792  0.482988
Te11776  Te  0.852642  0.875371  0.465975
Te11777  Te  0.841279  0.881950  0.500000
Mo5892  Mo  0.845067  0.888529  0.482988
Te11778  Te  0.841279  0.881950  0.465975
Te11779  Te  0.852642  0.888529  0.500000
Mo5893  Mo  0.856430  0.881950  0.482988
Te11780  Te  0.852642  0.888529  0.465975
Te11781  Te  0.864006  0.842476  0.500000
Mo5894  Mo  0.867794  0.849055  0.482988
Te11782  Te  0.864006  0.842476  0.465975
Te11783  Te  0.875370  0.849055  0.500000
Mo5895  Mo  0.879158  0.842476  0.482988
Te11784  Te  0.875370  0.849055  0.465975
Te11785  Te  0.864006  0.855634  0.500000
Mo5896  Mo  0.867794  0.862213  0.482988
Te11786  Te  0.864006  0.855634  0.465975
Te11787  Te  0.875370  0.862213  0.500000
Mo5897  Mo  0.879158  0.855634  0.482988
Te11788  Te  0.875370  0.862213  0.465975
Te11789  Te  0.864006  0.868792  0.500000
Mo5898  Mo  0.867794  0.875371  0.482988
Te11790  Te  0.864006  0.868792  0.465975
Te11791  Te  0.875370  0.875371  0.500000
Mo5899  Mo  0.879158  0.868792  0.482988
Te11792  Te  0.875370  0.875371  0.465975
Te11793  Te  0.864006  0.881950  0.500000
Mo5900  Mo  0.867794  0.888529  0.482988
Te11794  Te  0.864006  0.881950  0.465975
Te11795  Te  0.875370  0.888529  0.500000
Mo5901  Mo  0.879158  0.881950  0.482988
Te11796  Te  0.875370  0.888529  0.465975
Te11797  Te  0.886733  0.842476  0.500000
Mo5902  Mo  0.890521  0.849055  0.482988
Te11798  Te  0.886733  0.842476  0.465975
Te11799  Te  0.898097  0.849055  0.500000
Mo5903  Mo  0.901885  0.842476  0.482988
Te11800  Te  0.898097  0.849055  0.465975
Te11801  Te  0.886733  0.855634  0.500000
Mo5904  Mo  0.890521  0.862213  0.482988
Te11802  Te  0.886733  0.855634  0.465975
Te11803  Te  0.898097  0.862213  0.500000
Mo5905  Mo  0.901885  0.855634  0.482988
Te11804  Te  0.898097  0.862213  0.465975
Te11805  Te  0.886733  0.868792  0.500000
Mo5906  Mo  0.890521  0.875371  0.482988
Te11806  Te  0.886733  0.868792  0.465975
Te11807  Te  0.898097  0.875371  0.500000
Mo5907  Mo  0.901885  0.868792  0.482988
Te11808  Te  0.898097  0.875371  0.465975
Te11809  Te  0.886733  0.881950  0.500000
Mo5908  Mo  0.890521  0.888529  0.482988
Te11810  Te  0.886733  0.881950  0.465975
Te11811  Te  0.898097  0.888529  0.500000
Mo5909  Mo  0.901885  0.881950  0.482988
Te11812  Te  0.898097  0.888529  0.465975
Te11813  Te  0.909461  0.842476  0.500000
Mo5910  Mo  0.913248  0.849055  0.482988
Te11814  Te  0.909461  0.842476  0.465975
Te11815  Te  0.920824  0.849055  0.500000
Mo5911  Mo  0.924612  0.842476  0.482988
Te11816  Te  0.920824  0.849055  0.465975
Te11817  Te  0.909461  0.855634  0.500000
Mo5912  Mo  0.913248  0.862213  0.482988
Te11818  Te  0.909461  0.855634  0.465975
Te11819  Te  0.920824  0.862213  0.500000
Mo5913  Mo  0.924612  0.855634  0.482988
Te11820  Te  0.920824  0.862213  0.465975
Te11821  Te  0.909461  0.868792  0.500000
Mo5914  Mo  0.913248  0.875371  0.482988
Te11822  Te  0.909461  0.868792  0.465975
Te11823  Te  0.920824  0.875371  0.500000
Mo5915  Mo  0.924612  0.868792  0.482988
Te11824  Te  0.920824  0.875371  0.465975
Te11825  Te  0.909461  0.881950  0.500000
Mo5916  Mo  0.913248  0.888529  0.482988
Te11826  Te  0.909461  0.881950  0.465975
Te11827  Te  0.920824  0.888529  0.500000
Mo5917  Mo  0.924612  0.881950  0.482988
Te11828  Te  0.920824  0.888529  0.465975
Te11829  Te  0.932188  0.842476  0.500000
Mo5918  Mo  0.935976  0.849055  0.482988
Te11830  Te  0.932188  0.842476  0.465975
Te11831  Te  0.943552  0.849055  0.500000
Mo5919  Mo  0.947339  0.842476  0.482988
Te11832  Te  0.943552  0.849055  0.465975
Te11833  Te  0.932188  0.855634  0.500000
Mo5920  Mo  0.935976  0.862213  0.482988
Te11834  Te  0.932188  0.855634  0.465975
Te11835  Te  0.943552  0.862213  0.500000
Mo5921  Mo  0.947339  0.855634  0.482988
Te11836  Te  0.943552  0.862213  0.465975
Te11837  Te  0.932188  0.868792  0.500000
Mo5922  Mo  0.935976  0.875371  0.482988
Te11838  Te  0.932188  0.868792  0.465975
Te11839  Te  0.943552  0.875371  0.500000
Mo5923  Mo  0.947339  0.868792  0.482988
Te11840  Te  0.943552  0.875371  0.465975
Te11841  Te  0.932188  0.881950  0.500000
Mo5924  Mo  0.935976  0.888529  0.482988
Te11842  Te  0.932188  0.881950  0.465975
Te11843  Te  0.943552  0.888529  0.500000
Mo5925  Mo  0.947339  0.881950  0.482988
Te11844  Te  0.943552  0.888529  0.465975
Te11845  Te  0.954915  0.842476  0.500000
Mo5926  Mo  0.958703  0.849055  0.482988
Te11846  Te  0.954915  0.842476  0.465975
Te11847  Te  0.966279  0.849055  0.500000
Mo5927  Mo  0.970067  0.842476  0.482988
Te11848  Te  0.966279  0.849055  0.465975
Te11849  Te  0.954915  0.855634  0.500000
Mo5928  Mo  0.958703  0.862213  0.482988
Te11850  Te  0.954915  0.855634  0.465975
Te11851  Te  0.966279  0.862213  0.500000
Mo5929  Mo  0.970067  0.855634  0.482988
Te11852  Te  0.966279  0.862213  0.465975
Te11853  Te  0.954915  0.868792  0.500000
Mo5930  Mo  0.958703  0.875371  0.482988
Te11854  Te  0.954915  0.868792  0.465975
Te11855  Te  0.966279  0.875371  0.500000
Mo5931  Mo  0.970067  0.868792  0.482988
Te11856  Te  0.966279  0.875371  0.465975
Te11857  Te  0.954915  0.881950  0.500000
Mo5932  Mo  0.958703  0.888529  0.482988
Te11858  Te  0.954915  0.881950  0.465975
Te11859  Te  0.966279  0.888529  0.500000
Mo5933  Mo  0.970067  0.881950  0.482988
Te11860  Te  0.966279  0.888529  0.465975
Te11861  Te  0.977642  0.842476  0.500000
Mo5934  Mo  0.981430  0.849055  0.482988
Te11862  Te  0.977642  0.842476  0.465975
Te11863  Te  0.989006  0.849055  0.500000
Mo5935  Mo  0.992794  0.842476  0.482988
Te11864  Te  0.989006  0.849055  0.465975
Te11865  Te  0.977642  0.855634  0.500000
Mo5936  Mo  0.981430  0.862213  0.482988
Te11866  Te  0.977642  0.855634  0.465975
Te11867  Te  0.989006  0.862213  0.500000
Mo5937  Mo  0.992794  0.855634  0.482988
Te11868  Te  0.989006  0.862213  0.465975
Te11869  Te  0.977642  0.868792  0.500000
Mo5938  Mo  0.981430  0.875371  0.482988
Te11870  Te  0.977642  0.868792  0.465975
Te11871  Te  0.989006  0.875371  0.500000
Mo5939  Mo  0.992794  0.868792  0.482988
Te11872  Te  0.989006  0.875371  0.465975
Te11873  Te  0.977642  0.881950  0.500000
Mo5940  Mo  0.981430  0.888529  0.482988
Te11874  Te  0.977642  0.881950  0.465975
Te11875  Te  0.989006  0.888529  0.500000
Mo5941  Mo  0.992794  0.881950  0.482988
Te11876  Te  0.989006  0.888529  0.465975
Te11877  Te  0.000370  0.895107  0.500000
Mo5942  Mo  0.004158  0.901686  0.482988
Te11878  Te  0.000370  0.895107  0.465975
Te11879  Te  0.011733  0.901686  0.500000
Mo5943  Mo  0.015521  0.895107  0.482988
Te11880  Te  0.011733  0.901686  0.465975
Te11881  Te  0.000370  0.908265  0.500000
Mo5944  Mo  0.004158  0.914844  0.482988
Te11882  Te  0.000370  0.908265  0.465975
Te11883  Te  0.011733  0.914844  0.500000
Mo5945  Mo  0.015521  0.908265  0.482988
Te11884  Te  0.011733  0.914844  0.465975
Te11885  Te  0.000370  0.921423  0.500000
Mo5946  Mo  0.004158  0.928002  0.482988
Te11886  Te  0.000370  0.921423  0.465975
Te11887  Te  0.011733  0.928002  0.500000
Mo5947  Mo  0.015521  0.921423  0.482988
Te11888  Te  0.011733  0.928002  0.465975
Te11889  Te  0.000370  0.934581  0.500000
Mo5948  Mo  0.004158  0.941160  0.482988
Te11890  Te  0.000370  0.934581  0.465975
Te11891  Te  0.011733  0.941160  0.500000
Mo5949  Mo  0.015521  0.934581  0.482988
Te11892  Te  0.011733  0.941160  0.465975
Te11893  Te  0.023097  0.895107  0.500000
Mo5950  Mo  0.026885  0.901686  0.482988
Te11894  Te  0.023097  0.895107  0.465975
Te11895  Te  0.034461  0.901686  0.500000
Mo5951  Mo  0.038249  0.895107  0.482988
Te11896  Te  0.034461  0.901686  0.465975
Te11897  Te  0.023097  0.908265  0.500000
Mo5952  Mo  0.026885  0.914844  0.482988
Te11898  Te  0.023097  0.908265  0.465975
Te11899  Te  0.034461  0.914844  0.500000
Mo5953  Mo  0.038249  0.908265  0.482988
Te11900  Te  0.034461  0.914844  0.465975
Te11901  Te  0.023097  0.921423  0.500000
Mo5954  Mo  0.026885  0.928002  0.482988
Te11902  Te  0.023097  0.921423  0.465975
Te11903  Te  0.034461  0.928002  0.500000
Mo5955  Mo  0.038249  0.921423  0.482988
Te11904  Te  0.034461  0.928002  0.465975
Te11905  Te  0.023097  0.934581  0.500000
Mo5956  Mo  0.026885  0.941160  0.482988
Te11906  Te  0.023097  0.934581  0.465975
Te11907  Te  0.034461  0.941160  0.500000
Mo5957  Mo  0.038249  0.934581  0.482988
Te11908  Te  0.034461  0.941160  0.465975
Te11909  Te  0.045824  0.895107  0.500000
Mo5958  Mo  0.049612  0.901686  0.482988
Te11910  Te  0.045824  0.895107  0.465975
Te11911  Te  0.057188  0.901686  0.500000
Mo5959  Mo  0.060976  0.895107  0.482988
Te11912  Te  0.057188  0.901686  0.465975
Te11913  Te  0.045824  0.908265  0.500000
Mo5960  Mo  0.049612  0.914844  0.482988
Te11914  Te  0.045824  0.908265  0.465975
Te11915  Te  0.057188  0.914844  0.500000
Mo5961  Mo  0.060976  0.908265  0.482988
Te11916  Te  0.057188  0.914844  0.465975
Te11917  Te  0.045824  0.921423  0.500000
Mo5962  Mo  0.049612  0.928002  0.482988
Te11918  Te  0.045824  0.921423  0.465975
Te11919  Te  0.057188  0.928002  0.500000
Mo5963  Mo  0.060976  0.921423  0.482988
Te11920  Te  0.057188  0.928002  0.465975
Te11921  Te  0.045824  0.934581  0.500000
Mo5964  Mo  0.049612  0.941160  0.482988
Te11922  Te  0.045824  0.934581  0.465975
Te11923  Te  0.057188  0.941160  0.500000
Mo5965  Mo  0.060976  0.934581  0.482988
Te11924  Te  0.057188  0.941160  0.465975
Te11925  Te  0.068552  0.895107  0.500000
Mo5966  Mo  0.072339  0.901686  0.482988
Te11926  Te  0.068552  0.895107  0.465975
Te11927  Te  0.079915  0.901686  0.500000
Mo5967  Mo  0.083703  0.895107  0.482988
Te11928  Te  0.079915  0.901686  0.465975
Te11929  Te  0.068552  0.908265  0.500000
Mo5968  Mo  0.072339  0.914844  0.482988
Te11930  Te  0.068552  0.908265  0.465975
Te11931  Te  0.079915  0.914844  0.500000
Mo5969  Mo  0.083703  0.908265  0.482988
Te11932  Te  0.079915  0.914844  0.465975
Te11933  Te  0.068552  0.921423  0.500000
Mo5970  Mo  0.072339  0.928002  0.482988
Te11934  Te  0.068552  0.921423  0.465975
Te11935  Te  0.079915  0.928002  0.500000
Mo5971  Mo  0.083703  0.921423  0.482988
Te11936  Te  0.079915  0.928002  0.465975
Te11937  Te  0.068552  0.934581  0.500000
Mo5972  Mo  0.072339  0.941160  0.482988
Te11938  Te  0.068552  0.934581  0.465975
Te11939  Te  0.079915  0.941160  0.500000
Mo5973  Mo  0.083703  0.934581  0.482988
Te11940  Te  0.079915  0.941160  0.465975
Te11941  Te  0.091279  0.895107  0.500000
Mo5974  Mo  0.095067  0.901686  0.482988
Te11942  Te  0.091279  0.895107  0.465975
Te11943  Te  0.102642  0.901686  0.500000
Mo5975  Mo  0.106430  0.895107  0.482988
Te11944  Te  0.102642  0.901686  0.465975
Te11945  Te  0.091279  0.908265  0.500000
Mo5976  Mo  0.095067  0.914844  0.482988
Te11946  Te  0.091279  0.908265  0.465975
Te11947  Te  0.102642  0.914844  0.500000
Mo5977  Mo  0.106430  0.908265  0.482988
Te11948  Te  0.102642  0.914844  0.465975
Te11949  Te  0.091279  0.921423  0.500000
Mo5978  Mo  0.095067  0.928002  0.482988
Te11950  Te  0.091279  0.921423  0.465975
Te11951  Te  0.102642  0.928002  0.500000
Mo5979  Mo  0.106430  0.921423  0.482988
Te11952  Te  0.102642  0.928002  0.465975
Te11953  Te  0.091279  0.934581  0.500000
Mo5980  Mo  0.095067  0.941160  0.482988
Te11954  Te  0.091279  0.934581  0.465975
Te11955  Te  0.102642  0.941160  0.500000
Mo5981  Mo  0.106430  0.934581  0.482988
Te11956  Te  0.102642  0.941160  0.465975
Te11957  Te  0.114006  0.895107  0.500000
Mo5982  Mo  0.117794  0.901686  0.482988
Te11958  Te  0.114006  0.895107  0.465975
Te11959  Te  0.125370  0.901686  0.500000
Mo5983  Mo  0.129158  0.895107  0.482988
Te11960  Te  0.125370  0.901686  0.465975
Te11961  Te  0.114006  0.908265  0.500000
Mo5984  Mo  0.117794  0.914844  0.482988
Te11962  Te  0.114006  0.908265  0.465975
Te11963  Te  0.125370  0.914844  0.500000
Mo5985  Mo  0.129158  0.908265  0.482988
Te11964  Te  0.125370  0.914844  0.465975
Te11965  Te  0.114006  0.921423  0.500000
Mo5986  Mo  0.117794  0.928002  0.482988
Te11966  Te  0.114006  0.921423  0.465975
Te11967  Te  0.125370  0.928002  0.500000
Mo5987  Mo  0.129158  0.921423  0.482988
Te11968  Te  0.125370  0.928002  0.465975
Te11969  Te  0.114006  0.934581  0.500000
Mo5988  Mo  0.117794  0.941160  0.482988
Te11970  Te  0.114006  0.934581  0.465975
Te11971  Te  0.125370  0.941160  0.500000
Mo5989  Mo  0.129158  0.934581  0.482988
Te11972  Te  0.125370  0.941160  0.465975
Te11973  Te  0.136733  0.895107  0.500000
Mo5990  Mo  0.140521  0.901686  0.482988
Te11974  Te  0.136733  0.895107  0.465975
Te11975  Te  0.148097  0.901686  0.500000
Mo5991  Mo  0.151885  0.895107  0.482988
Te11976  Te  0.148097  0.901686  0.465975
Te11977  Te  0.136733  0.908265  0.500000
Mo5992  Mo  0.140521  0.914844  0.482988
Te11978  Te  0.136733  0.908265  0.465975
Te11979  Te  0.148097  0.914844  0.500000
Mo5993  Mo  0.151885  0.908265  0.482988
Te11980  Te  0.148097  0.914844  0.465975
Te11981  Te  0.136733  0.921423  0.500000
Mo5994  Mo  0.140521  0.928002  0.482988
Te11982  Te  0.136733  0.921423  0.465975
Te11983  Te  0.148097  0.928002  0.500000
Mo5995  Mo  0.151885  0.921423  0.482988
Te11984  Te  0.148097  0.928002  0.465975
Te11985  Te  0.136733  0.934581  0.500000
Mo5996  Mo  0.140521  0.941160  0.482988
Te11986  Te  0.136733  0.934581  0.465975
Te11987  Te  0.148097  0.941160  0.500000
Mo5997  Mo  0.151885  0.934581  0.482988
Te11988  Te  0.148097  0.941160  0.465975
Te11989  Te  0.159461  0.895107  0.500000
Mo5998  Mo  0.163248  0.901686  0.482988
Te11990  Te  0.159461  0.895107  0.465975
Te11991  Te  0.170824  0.901686  0.500000
Mo5999  Mo  0.174612  0.895107  0.482988
Te11992  Te  0.170824  0.901686  0.465975
Te11993  Te  0.159461  0.908265  0.500000
Mo6000  Mo  0.163248  0.914844  0.482988
Te11994  Te  0.159461  0.908265  0.465975
Te11995  Te  0.170824  0.914844  0.500000
Mo6001  Mo  0.174612  0.908265  0.482988
Te11996  Te  0.170824  0.914844  0.465975
Te11997  Te  0.159461  0.921423  0.500000
Mo6002  Mo  0.163248  0.928002  0.482988
Te11998  Te  0.159461  0.921423  0.465975
Te11999  Te  0.170824  0.928002  0.500000
Mo6003  Mo  0.174612  0.921423  0.482988
Te12000  Te  0.170824  0.928002  0.465975
Te12001  Te  0.159461  0.934581  0.500000
Mo6004  Mo  0.163248  0.941160  0.482988
Te12002  Te  0.159461  0.934581  0.465975
Te12003  Te  0.170824  0.941160  0.500000
Mo6005  Mo  0.174612  0.934581  0.482988
Te12004  Te  0.170824  0.941160  0.465975
Te12005  Te  0.182188  0.895107  0.500000
Mo6006  Mo  0.185976  0.901686  0.482988
Te12006  Te  0.182188  0.895107  0.465975
Te12007  Te  0.193551  0.901686  0.500000
Mo6007  Mo  0.197339  0.895107  0.482988
Te12008  Te  0.193551  0.901686  0.465975
Te12009  Te  0.182188  0.908265  0.500000
Mo6008  Mo  0.185976  0.914844  0.482988
Te12010  Te  0.182188  0.908265  0.465975
Te12011  Te  0.193551  0.914844  0.500000
Mo6009  Mo  0.197339  0.908265  0.482988
Te12012  Te  0.193551  0.914844  0.465975
Te12013  Te  0.182188  0.921423  0.500000
Mo6010  Mo  0.185976  0.928002  0.482988
Te12014  Te  0.182188  0.921423  0.465975
Te12015  Te  0.193551  0.928002  0.500000
Mo6011  Mo  0.197339  0.921423  0.482988
Te12016  Te  0.193551  0.928002  0.465975
Te12017  Te  0.182188  0.934581  0.500000
Mo6012  Mo  0.185976  0.941160  0.482988
Te12018  Te  0.182188  0.934581  0.465975
Te12019  Te  0.193551  0.941160  0.500000
Mo6013  Mo  0.197339  0.934581  0.482988
Te12020  Te  0.193551  0.941160  0.465975
Te12021  Te  0.204915  0.895107  0.500000
Mo6014  Mo  0.208703  0.901686  0.482988
Te12022  Te  0.204915  0.895107  0.465975
Te12023  Te  0.216279  0.901686  0.500000
Mo6015  Mo  0.220067  0.895107  0.482988
Te12024  Te  0.216279  0.901686  0.465975
Te12025  Te  0.204915  0.908265  0.500000
Mo6016  Mo  0.208703  0.914844  0.482988
Te12026  Te  0.204915  0.908265  0.465975
Te12027  Te  0.216279  0.914844  0.500000
Mo6017  Mo  0.220067  0.908265  0.482988
Te12028  Te  0.216279  0.914844  0.465975
Te12029  Te  0.204915  0.921423  0.500000
Mo6018  Mo  0.208703  0.928002  0.482988
Te12030  Te  0.204915  0.921423  0.465975
Te12031  Te  0.216279  0.928002  0.500000
Mo6019  Mo  0.220067  0.921423  0.482988
Te12032  Te  0.216279  0.928002  0.465975
Te12033  Te  0.204915  0.934581  0.500000
Mo6020  Mo  0.208703  0.941160  0.482988
Te12034  Te  0.204915  0.934581  0.465975
Te12035  Te  0.216279  0.941160  0.500000
Mo6021  Mo  0.220067  0.934581  0.482988
Te12036  Te  0.216279  0.941160  0.465975
Te12037  Te  0.227642  0.895107  0.500000
Mo6022  Mo  0.231430  0.901686  0.482988
Te12038  Te  0.227642  0.895107  0.465975
Te12039  Te  0.239006  0.901686  0.500000
Mo6023  Mo  0.242794  0.895107  0.482988
Te12040  Te  0.239006  0.901686  0.465975
Te12041  Te  0.227642  0.908265  0.500000
Mo6024  Mo  0.231430  0.914844  0.482988
Te12042  Te  0.227642  0.908265  0.465975
Te12043  Te  0.239006  0.914844  0.500000
Mo6025  Mo  0.242794  0.908265  0.482988
Te12044  Te  0.239006  0.914844  0.465975
Te12045  Te  0.227642  0.921423  0.500000
Mo6026  Mo  0.231430  0.928002  0.482988
Te12046  Te  0.227642  0.921423  0.465975
Te12047  Te  0.239006  0.928002  0.500000
Mo6027  Mo  0.242794  0.921423  0.482988
Te12048  Te  0.239006  0.928002  0.465975
Te12049  Te  0.227642  0.934581  0.500000
Mo6028  Mo  0.231430  0.941160  0.482988
Te12050  Te  0.227642  0.934581  0.465975
Te12051  Te  0.239006  0.941160  0.500000
Mo6029  Mo  0.242794  0.934581  0.482988
Te12052  Te  0.239006  0.941160  0.465975
Te12053  Te  0.250370  0.895107  0.500000
Mo6030  Mo  0.254158  0.901686  0.482988
Te12054  Te  0.250370  0.895107  0.465975
Te12055  Te  0.261733  0.901686  0.500000
Mo6031  Mo  0.265521  0.895107  0.482988
Te12056  Te  0.261733  0.901686  0.465975
Te12057  Te  0.250370  0.908265  0.500000
Mo6032  Mo  0.254158  0.914844  0.482988
Te12058  Te  0.250370  0.908265  0.465975
Te12059  Te  0.261733  0.914844  0.500000
Mo6033  Mo  0.265521  0.908265  0.482988
Te12060  Te  0.261733  0.914844  0.465975
Te12061  Te  0.250370  0.921423  0.500000
Mo6034  Mo  0.254158  0.928002  0.482988
Te12062  Te  0.250370  0.921423  0.465975
Te12063  Te  0.261733  0.928002  0.500000
Mo6035  Mo  0.265521  0.921423  0.482988
Te12064  Te  0.261733  0.928002  0.465975
Te12065  Te  0.250370  0.934581  0.500000
Mo6036  Mo  0.254158  0.941160  0.482988
Te12066  Te  0.250370  0.934581  0.465975
Te12067  Te  0.261733  0.941160  0.500000
Mo6037  Mo  0.265521  0.934581  0.482988
Te12068  Te  0.261733  0.941160  0.465975
Te12069  Te  0.273097  0.895107  0.500000
Mo6038  Mo  0.276885  0.901686  0.482988
Te12070  Te  0.273097  0.895107  0.465975
Te12071  Te  0.284461  0.901686  0.500000
Mo6039  Mo  0.288248  0.895107  0.482988
Te12072  Te  0.284461  0.901686  0.465975
Te12073  Te  0.273097  0.908265  0.500000
Mo6040  Mo  0.276885  0.914844  0.482988
Te12074  Te  0.273097  0.908265  0.465975
Te12075  Te  0.284461  0.914844  0.500000
Mo6041  Mo  0.288248  0.908265  0.482988
Te12076  Te  0.284461  0.914844  0.465975
Te12077  Te  0.273097  0.921423  0.500000
Mo6042  Mo  0.276885  0.928002  0.482988
Te12078  Te  0.273097  0.921423  0.465975
Te12079  Te  0.284461  0.928002  0.500000
Mo6043  Mo  0.288248  0.921423  0.482988
Te12080  Te  0.284461  0.928002  0.465975
Te12081  Te  0.273097  0.934581  0.500000
Mo6044  Mo  0.276885  0.941160  0.482988
Te12082  Te  0.273097  0.934581  0.465975
Te12083  Te  0.284461  0.941160  0.500000
Mo6045  Mo  0.288248  0.934581  0.482988
Te12084  Te  0.284461  0.941160  0.465975
Te12085  Te  0.295824  0.895107  0.500000
Mo6046  Mo  0.299612  0.901686  0.482988
Te12086  Te  0.295824  0.895107  0.465975
Te12087  Te  0.307188  0.901686  0.500000
Mo6047  Mo  0.310976  0.895107  0.482988
Te12088  Te  0.307188  0.901686  0.465975
Te12089  Te  0.295824  0.908265  0.500000
Mo6048  Mo  0.299612  0.914844  0.482988
Te12090  Te  0.295824  0.908265  0.465975
Te12091  Te  0.307188  0.914844  0.500000
Mo6049  Mo  0.310976  0.908265  0.482988
Te12092  Te  0.307188  0.914844  0.465975
Te12093  Te  0.295824  0.921423  0.500000
Mo6050  Mo  0.299612  0.928002  0.482988
Te12094  Te  0.295824  0.921423  0.465975
Te12095  Te  0.307188  0.928002  0.500000
Mo6051  Mo  0.310976  0.921423  0.482988
Te12096  Te  0.307188  0.928002  0.465975
Te12097  Te  0.295824  0.934581  0.500000
Mo6052  Mo  0.299612  0.941160  0.482988
Te12098  Te  0.295824  0.934581  0.465975
Te12099  Te  0.307188  0.941160  0.500000
Mo6053  Mo  0.310976  0.934581  0.482988
Te12100  Te  0.307188  0.941160  0.465975
Te12101  Te  0.318551  0.895107  0.500000
Mo6054  Mo  0.322339  0.901686  0.482988
Te12102  Te  0.318551  0.895107  0.465975
Te12103  Te  0.329915  0.901686  0.500000
Mo6055  Mo  0.333703  0.895107  0.482988
Te12104  Te  0.329915  0.901686  0.465975
Te12105  Te  0.318551  0.908265  0.500000
Mo6056  Mo  0.322339  0.914844  0.482988
Te12106  Te  0.318551  0.908265  0.465975
Te12107  Te  0.329915  0.914844  0.500000
Mo6057  Mo  0.333703  0.908265  0.482988
Te12108  Te  0.329915  0.914844  0.465975
Te12109  Te  0.318551  0.921423  0.500000
Mo6058  Mo  0.322339  0.928002  0.482988
Te12110  Te  0.318551  0.921423  0.465975
Te12111  Te  0.329915  0.928002  0.500000
Mo6059  Mo  0.333703  0.921423  0.482988
Te12112  Te  0.329915  0.928002  0.465975
Te12113  Te  0.318551  0.934581  0.500000
Mo6060  Mo  0.322339  0.941160  0.482988
Te12114  Te  0.318551  0.934581  0.465975
Te12115  Te  0.329915  0.941160  0.500000
Mo6061  Mo  0.333703  0.934581  0.482988
Te12116  Te  0.329915  0.941160  0.465975
Te12117  Te  0.341279  0.895107  0.500000
Mo6062  Mo  0.345067  0.901686  0.482988
Te12118  Te  0.341279  0.895107  0.465975
Te12119  Te  0.352642  0.901686  0.500000
Mo6063  Mo  0.356430  0.895107  0.482988
Te12120  Te  0.352642  0.901686  0.465975
Te12121  Te  0.341279  0.908265  0.500000
Mo6064  Mo  0.345067  0.914844  0.482988
Te12122  Te  0.341279  0.908265  0.465975
Te12123  Te  0.352642  0.914844  0.500000
Mo6065  Mo  0.356430  0.908265  0.482988
Te12124  Te  0.352642  0.914844  0.465975
Te12125  Te  0.341279  0.921423  0.500000
Mo6066  Mo  0.345067  0.928002  0.482988
Te12126  Te  0.341279  0.921423  0.465975
Te12127  Te  0.352642  0.928002  0.500000
Mo6067  Mo  0.356430  0.921423  0.482988
Te12128  Te  0.352642  0.928002  0.465975
Te12129  Te  0.341279  0.934581  0.500000
Mo6068  Mo  0.345067  0.941160  0.482988
Te12130  Te  0.341279  0.934581  0.465975
Te12131  Te  0.352642  0.941160  0.500000
Mo6069  Mo  0.356430  0.934581  0.482988
Te12132  Te  0.352642  0.941160  0.465975
Te12133  Te  0.364006  0.895107  0.500000
Mo6070  Mo  0.367794  0.901686  0.482988
Te12134  Te  0.364006  0.895107  0.465975
Te12135  Te  0.375370  0.901686  0.500000
Mo6071  Mo  0.379158  0.895107  0.482988
Te12136  Te  0.375370  0.901686  0.465975
Te12137  Te  0.364006  0.908265  0.500000
Mo6072  Mo  0.367794  0.914844  0.482988
Te12138  Te  0.364006  0.908265  0.465975
Te12139  Te  0.375370  0.914844  0.500000
Mo6073  Mo  0.379158  0.908265  0.482988
Te12140  Te  0.375370  0.914844  0.465975
Te12141  Te  0.364006  0.921423  0.500000
Mo6074  Mo  0.367794  0.928002  0.482988
Te12142  Te  0.364006  0.921423  0.465975
Te12143  Te  0.375370  0.928002  0.500000
Mo6075  Mo  0.379158  0.921423  0.482988
Te12144  Te  0.375370  0.928002  0.465975
Te12145  Te  0.364006  0.934581  0.500000
Mo6076  Mo  0.367794  0.941160  0.482988
Te12146  Te  0.364006  0.934581  0.465975
Te12147  Te  0.375370  0.941160  0.500000
Mo6077  Mo  0.379158  0.934581  0.482988
Te12148  Te  0.375370  0.941160  0.465975
Te12149  Te  0.386733  0.895107  0.500000
Mo6078  Mo  0.390521  0.901686  0.482988
Te12150  Te  0.386733  0.895107  0.465975
Te12151  Te  0.398097  0.901686  0.500000
Mo6079  Mo  0.401885  0.895107  0.482988
Te12152  Te  0.398097  0.901686  0.465975
Te12153  Te  0.386733  0.908265  0.500000
Mo6080  Mo  0.390521  0.914844  0.482988
Te12154  Te  0.386733  0.908265  0.465975
Te12155  Te  0.398097  0.914844  0.500000
Mo6081  Mo  0.401885  0.908265  0.482988
Te12156  Te  0.398097  0.914844  0.465975
Te12157  Te  0.386733  0.921423  0.500000
Mo6082  Mo  0.390521  0.928002  0.482988
Te12158  Te  0.386733  0.921423  0.465975
Te12159  Te  0.398097  0.928002  0.500000
Mo6083  Mo  0.401885  0.921423  0.482988
Te12160  Te  0.398097  0.928002  0.465975
Te12161  Te  0.386733  0.934581  0.500000
Mo6084  Mo  0.390521  0.941160  0.482988
Te12162  Te  0.386733  0.934581  0.465975
Te12163  Te  0.398097  0.941160  0.500000
Mo6085  Mo  0.401885  0.934581  0.482988
Te12164  Te  0.398097  0.941160  0.465975
Te12165  Te  0.409461  0.895107  0.500000
Mo6086  Mo  0.413248  0.901686  0.482988
Te12166  Te  0.409461  0.895107  0.465975
Te12167  Te  0.420824  0.901686  0.500000
Mo6087  Mo  0.424612  0.895107  0.482988
Te12168  Te  0.420824  0.901686  0.465975
Te12169  Te  0.409461  0.908265  0.500000
Mo6088  Mo  0.413248  0.914844  0.482988
Te12170  Te  0.409461  0.908265  0.465975
Te12171  Te  0.420824  0.914844  0.500000
Mo6089  Mo  0.424612  0.908265  0.482988
Te12172  Te  0.420824  0.914844  0.465975
Te12173  Te  0.409461  0.921423  0.500000
Mo6090  Mo  0.413248  0.928002  0.482988
Te12174  Te  0.409461  0.921423  0.465975
Te12175  Te  0.420824  0.928002  0.500000
Mo6091  Mo  0.424612  0.921423  0.482988
Te12176  Te  0.420824  0.928002  0.465975
Te12177  Te  0.409461  0.934581  0.500000
Mo6092  Mo  0.413248  0.941160  0.482988
Te12178  Te  0.409461  0.934581  0.465975
Te12179  Te  0.420824  0.941160  0.500000
Mo6093  Mo  0.424612  0.934581  0.482988
Te12180  Te  0.420824  0.941160  0.465975
Te12181  Te  0.432188  0.895107  0.500000
Mo6094  Mo  0.435976  0.901686  0.482988
Te12182  Te  0.432188  0.895107  0.465975
Te12183  Te  0.443552  0.901686  0.500000
Mo6095  Mo  0.447339  0.895107  0.482988
Te12184  Te  0.443552  0.901686  0.465975
Te12185  Te  0.432188  0.908265  0.500000
Mo6096  Mo  0.435976  0.914844  0.482988
Te12186  Te  0.432188  0.908265  0.465975
Te12187  Te  0.443552  0.914844  0.500000
Mo6097  Mo  0.447339  0.908265  0.482988
Te12188  Te  0.443552  0.914844  0.465975
Te12189  Te  0.432188  0.921423  0.500000
Mo6098  Mo  0.435976  0.928002  0.482988
Te12190  Te  0.432188  0.921423  0.465975
Te12191  Te  0.443552  0.928002  0.500000
Mo6099  Mo  0.447339  0.921423  0.482988
Te12192  Te  0.443552  0.928002  0.465975
Te12193  Te  0.432188  0.934581  0.500000
Mo6100  Mo  0.435976  0.941160  0.482988
Te12194  Te  0.432188  0.934581  0.465975
Te12195  Te  0.443552  0.941160  0.500000
Mo6101  Mo  0.447339  0.934581  0.482988
Te12196  Te  0.443552  0.941160  0.465975
Te12197  Te  0.454915  0.895107  0.500000
Mo6102  Mo  0.458703  0.901686  0.482988
Te12198  Te  0.454915  0.895107  0.465975
Te12199  Te  0.466279  0.901686  0.500000
Mo6103  Mo  0.470067  0.895107  0.482988
Te12200  Te  0.466279  0.901686  0.465975
Te12201  Te  0.454915  0.908265  0.500000
Mo6104  Mo  0.458703  0.914844  0.482988
Te12202  Te  0.454915  0.908265  0.465975
Te12203  Te  0.466279  0.914844  0.500000
Mo6105  Mo  0.470067  0.908265  0.482988
Te12204  Te  0.466279  0.914844  0.465975
Te12205  Te  0.454915  0.921423  0.500000
Mo6106  Mo  0.458703  0.928002  0.482988
Te12206  Te  0.454915  0.921423  0.465975
Te12207  Te  0.466279  0.928002  0.500000
Mo6107  Mo  0.470067  0.921423  0.482988
Te12208  Te  0.466279  0.928002  0.465975
Te12209  Te  0.454915  0.934581  0.500000
Mo6108  Mo  0.458703  0.941160  0.482988
Te12210  Te  0.454915  0.934581  0.465975
Te12211  Te  0.466279  0.941160  0.500000
Mo6109  Mo  0.470067  0.934581  0.482988
Te12212  Te  0.466279  0.941160  0.465975
Te12213  Te  0.477642  0.895107  0.500000
Mo6110  Mo  0.481430  0.901686  0.482988
Te12214  Te  0.477642  0.895107  0.465975
Te12215  Te  0.489006  0.901686  0.500000
Mo6111  Mo  0.492794  0.895107  0.482988
Te12216  Te  0.489006  0.901686  0.465975
Te12217  Te  0.477642  0.908265  0.500000
Mo6112  Mo  0.481430  0.914844  0.482988
Te12218  Te  0.477642  0.908265  0.465975
Te12219  Te  0.489006  0.914844  0.500000
Mo6113  Mo  0.492794  0.908265  0.482988
Te12220  Te  0.489006  0.914844  0.465975
Te12221  Te  0.477642  0.921423  0.500000
Mo6114  Mo  0.481430  0.928002  0.482988
Te12222  Te  0.477642  0.921423  0.465975
Te12223  Te  0.489006  0.928002  0.500000
Mo6115  Mo  0.492794  0.921423  0.482988
Te12224  Te  0.489006  0.928002  0.465975
Te12225  Te  0.477642  0.934581  0.500000
Mo6116  Mo  0.481430  0.941160  0.482988
Te12226  Te  0.477642  0.934581  0.465975
Te12227  Te  0.489006  0.941160  0.500000
Mo6117  Mo  0.492794  0.934581  0.482988
Te12228  Te  0.489006  0.941160  0.465975
Te12229  Te  0.500370  0.895107  0.500000
Mo6118  Mo  0.504158  0.901686  0.482988
Te12230  Te  0.500370  0.895107  0.465975
Te12231  Te  0.511733  0.901686  0.500000
Mo6119  Mo  0.515521  0.895107  0.482988
Te12232  Te  0.511733  0.901686  0.465975
Te12233  Te  0.500370  0.908265  0.500000
Mo6120  Mo  0.504158  0.914844  0.482988
Te12234  Te  0.500370  0.908265  0.465975
Te12235  Te  0.511733  0.914844  0.500000
Mo6121  Mo  0.515521  0.908265  0.482988
Te12236  Te  0.511733  0.914844  0.465975
Te12237  Te  0.500370  0.921423  0.500000
Mo6122  Mo  0.504158  0.928002  0.482988
Te12238  Te  0.500370  0.921423  0.465975
Te12239  Te  0.511733  0.928002  0.500000
Mo6123  Mo  0.515521  0.921423  0.482988
Te12240  Te  0.511733  0.928002  0.465975
Te12241  Te  0.500370  0.934581  0.500000
Mo6124  Mo  0.504158  0.941160  0.482988
Te12242  Te  0.500370  0.934581  0.465975
Te12243  Te  0.511733  0.941160  0.500000
Mo6125  Mo  0.515521  0.934581  0.482988
Te12244  Te  0.511733  0.941160  0.465975
Te12245  Te  0.523097  0.895107  0.500000
Mo6126  Mo  0.526885  0.901686  0.482988
Te12246  Te  0.523097  0.895107  0.465975
Te12247  Te  0.534461  0.901686  0.500000
Mo6127  Mo  0.538249  0.895107  0.482988
Te12248  Te  0.534461  0.901686  0.465975
Te12249  Te  0.523097  0.908265  0.500000
Mo6128  Mo  0.526885  0.914844  0.482988
Te12250  Te  0.523097  0.908265  0.465975
Te12251  Te  0.534461  0.914844  0.500000
Mo6129  Mo  0.538249  0.908265  0.482988
Te12252  Te  0.534461  0.914844  0.465975
Te12253  Te  0.523097  0.921423  0.500000
Mo6130  Mo  0.526885  0.928002  0.482988
Te12254  Te  0.523097  0.921423  0.465975
Te12255  Te  0.534461  0.928002  0.500000
Mo6131  Mo  0.538249  0.921423  0.482988
Te12256  Te  0.534461  0.928002  0.465975
Te12257  Te  0.523097  0.934581  0.500000
Mo6132  Mo  0.526885  0.941160  0.482988
Te12258  Te  0.523097  0.934581  0.465975
Te12259  Te  0.534461  0.941160  0.500000
Mo6133  Mo  0.538249  0.934581  0.482988
Te12260  Te  0.534461  0.941160  0.465975
Te12261  Te  0.545824  0.895107  0.500000
Mo6134  Mo  0.549612  0.901686  0.482988
Te12262  Te  0.545824  0.895107  0.465975
Te12263  Te  0.557188  0.901686  0.500000
Mo6135  Mo  0.560976  0.895107  0.482988
Te12264  Te  0.557188  0.901686  0.465975
Te12265  Te  0.545824  0.908265  0.500000
Mo6136  Mo  0.549612  0.914844  0.482988
Te12266  Te  0.545824  0.908265  0.465975
Te12267  Te  0.557188  0.914844  0.500000
Mo6137  Mo  0.560976  0.908265  0.482988
Te12268  Te  0.557188  0.914844  0.465975
Te12269  Te  0.545824  0.921423  0.500000
Mo6138  Mo  0.549612  0.928002  0.482988
Te12270  Te  0.545824  0.921423  0.465975
Te12271  Te  0.557188  0.928002  0.500000
Mo6139  Mo  0.560976  0.921423  0.482988
Te12272  Te  0.557188  0.928002  0.465975
Te12273  Te  0.545824  0.934581  0.500000
Mo6140  Mo  0.549612  0.941160  0.482988
Te12274  Te  0.545824  0.934581  0.465975
Te12275  Te  0.557188  0.941160  0.500000
Mo6141  Mo  0.560976  0.934581  0.482988
Te12276  Te  0.557188  0.941160  0.465975
Te12277  Te  0.568552  0.895107  0.500000
Mo6142  Mo  0.572339  0.901686  0.482988
Te12278  Te  0.568552  0.895107  0.465975
Te12279  Te  0.579915  0.901686  0.500000
Mo6143  Mo  0.583703  0.895107  0.482988
Te12280  Te  0.579915  0.901686  0.465975
Te12281  Te  0.568552  0.908265  0.500000
Mo6144  Mo  0.572339  0.914844  0.482988
Te12282  Te  0.568552  0.908265  0.465975
Te12283  Te  0.579915  0.914844  0.500000
Mo6145  Mo  0.583703  0.908265  0.482988
Te12284  Te  0.579915  0.914844  0.465975
Te12285  Te  0.568552  0.921423  0.500000
Mo6146  Mo  0.572339  0.928002  0.482988
Te12286  Te  0.568552  0.921423  0.465975
Te12287  Te  0.579915  0.928002  0.500000
Mo6147  Mo  0.583703  0.921423  0.482988
Te12288  Te  0.579915  0.928002  0.465975
Te12289  Te  0.568552  0.934581  0.500000
Mo6148  Mo  0.572339  0.941160  0.482988
Te12290  Te  0.568552  0.934581  0.465975
Te12291  Te  0.579915  0.941160  0.500000
Mo6149  Mo  0.583703  0.934581  0.482988
Te12292  Te  0.579915  0.941160  0.465975
Te12293  Te  0.591279  0.895107  0.500000
Mo6150  Mo  0.595067  0.901686  0.482988
Te12294  Te  0.591279  0.895107  0.465975
Te12295  Te  0.602642  0.901686  0.500000
Mo6151  Mo  0.606430  0.895107  0.482988
Te12296  Te  0.602642  0.901686  0.465975
Te12297  Te  0.591279  0.908265  0.500000
Mo6152  Mo  0.595067  0.914844  0.482988
Te12298  Te  0.591279  0.908265  0.465975
Te12299  Te  0.602642  0.914844  0.500000
Mo6153  Mo  0.606430  0.908265  0.482988
Te12300  Te  0.602642  0.914844  0.465975
Te12301  Te  0.591279  0.921423  0.500000
Mo6154  Mo  0.595067  0.928002  0.482988
Te12302  Te  0.591279  0.921423  0.465975
Te12303  Te  0.602642  0.928002  0.500000
Mo6155  Mo  0.606430  0.921423  0.482988
Te12304  Te  0.602642  0.928002  0.465975
Te12305  Te  0.591279  0.934581  0.500000
Mo6156  Mo  0.595067  0.941160  0.482988
Te12306  Te  0.591279  0.934581  0.465975
Te12307  Te  0.602642  0.941160  0.500000
Mo6157  Mo  0.606430  0.934581  0.482988
Te12308  Te  0.602642  0.941160  0.465975
Te12309  Te  0.614006  0.895107  0.500000
Mo6158  Mo  0.617794  0.901686  0.482988
Te12310  Te  0.614006  0.895107  0.465975
Te12311  Te  0.625370  0.901686  0.500000
Mo6159  Mo  0.629158  0.895107  0.482988
Te12312  Te  0.625370  0.901686  0.465975
Te12313  Te  0.614006  0.908265  0.500000
Mo6160  Mo  0.617794  0.914844  0.482988
Te12314  Te  0.614006  0.908265  0.465975
Te12315  Te  0.625370  0.914844  0.500000
Mo6161  Mo  0.629158  0.908265  0.482988
Te12316  Te  0.625370  0.914844  0.465975
Te12317  Te  0.614006  0.921423  0.500000
Mo6162  Mo  0.617794  0.928002  0.482988
Te12318  Te  0.614006  0.921423  0.465975
Te12319  Te  0.625370  0.928002  0.500000
Mo6163  Mo  0.629158  0.921423  0.482988
Te12320  Te  0.625370  0.928002  0.465975
Te12321  Te  0.614006  0.934581  0.500000
Mo6164  Mo  0.617794  0.941160  0.482988
Te12322  Te  0.614006  0.934581  0.465975
Te12323  Te  0.625370  0.941160  0.500000
Mo6165  Mo  0.629158  0.934581  0.482988
Te12324  Te  0.625370  0.941160  0.465975
Te12325  Te  0.636733  0.895107  0.500000
Mo6166  Mo  0.640521  0.901686  0.482988
Te12326  Te  0.636733  0.895107  0.465975
Te12327  Te  0.648097  0.901686  0.500000
Mo6167  Mo  0.651885  0.895107  0.482988
Te12328  Te  0.648097  0.901686  0.465975
Te12329  Te  0.636733  0.908265  0.500000
Mo6168  Mo  0.640521  0.914844  0.482988
Te12330  Te  0.636733  0.908265  0.465975
Te12331  Te  0.648097  0.914844  0.500000
Mo6169  Mo  0.651885  0.908265  0.482988
Te12332  Te  0.648097  0.914844  0.465975
Te12333  Te  0.636733  0.921423  0.500000
Mo6170  Mo  0.640521  0.928002  0.482988
Te12334  Te  0.636733  0.921423  0.465975
Te12335  Te  0.648097  0.928002  0.500000
Mo6171  Mo  0.651885  0.921423  0.482988
Te12336  Te  0.648097  0.928002  0.465975
Te12337  Te  0.636733  0.934581  0.500000
Mo6172  Mo  0.640521  0.941160  0.482988
Te12338  Te  0.636733  0.934581  0.465975
Te12339  Te  0.648097  0.941160  0.500000
Mo6173  Mo  0.651885  0.934581  0.482988
Te12340  Te  0.648097  0.941160  0.465975
Te12341  Te  0.659461  0.895107  0.500000
Mo6174  Mo  0.663248  0.901686  0.482988
Te12342  Te  0.659461  0.895107  0.465975
Te12343  Te  0.670824  0.901686  0.500000
Mo6175  Mo  0.674612  0.895107  0.482988
Te12344  Te  0.670824  0.901686  0.465975
Te12345  Te  0.659461  0.908265  0.500000
Mo6176  Mo  0.663248  0.914844  0.482988
Te12346  Te  0.659461  0.908265  0.465975
Te12347  Te  0.670824  0.914844  0.500000
Mo6177  Mo  0.674612  0.908265  0.482988
Te12348  Te  0.670824  0.914844  0.465975
Te12349  Te  0.659461  0.921423  0.500000
Mo6178  Mo  0.663248  0.928002  0.482988
Te12350  Te  0.659461  0.921423  0.465975
Te12351  Te  0.670824  0.928002  0.500000
Mo6179  Mo  0.674612  0.921423  0.482988
Te12352  Te  0.670824  0.928002  0.465975
Te12353  Te  0.659461  0.934581  0.500000
Mo6180  Mo  0.663248  0.941160  0.482988
Te12354  Te  0.659461  0.934581  0.465975
Te12355  Te  0.670824  0.941160  0.500000
Mo6181  Mo  0.674612  0.934581  0.482988
Te12356  Te  0.670824  0.941160  0.465975
Te12357  Te  0.682188  0.895107  0.500000
Mo6182  Mo  0.685976  0.901686  0.482988
Te12358  Te  0.682188  0.895107  0.465975
Te12359  Te  0.693551  0.901686  0.500000
Mo6183  Mo  0.697339  0.895107  0.482988
Te12360  Te  0.693551  0.901686  0.465975
Te12361  Te  0.682188  0.908265  0.500000
Mo6184  Mo  0.685976  0.914844  0.482988
Te12362  Te  0.682188  0.908265  0.465975
Te12363  Te  0.693551  0.914844  0.500000
Mo6185  Mo  0.697339  0.908265  0.482988
Te12364  Te  0.693551  0.914844  0.465975
Te12365  Te  0.682188  0.921423  0.500000
Mo6186  Mo  0.685976  0.928002  0.482988
Te12366  Te  0.682188  0.921423  0.465975
Te12367  Te  0.693551  0.928002  0.500000
Mo6187  Mo  0.697339  0.921423  0.482988
Te12368  Te  0.693551  0.928002  0.465975
Te12369  Te  0.682188  0.934581  0.500000
Mo6188  Mo  0.685976  0.941160  0.482988
Te12370  Te  0.682188  0.934581  0.465975
Te12371  Te  0.693551  0.941160  0.500000
Mo6189  Mo  0.697339  0.934581  0.482988
Te12372  Te  0.693551  0.941160  0.465975
Te12373  Te  0.704915  0.895107  0.500000
Mo6190  Mo  0.708703  0.901686  0.482988
Te12374  Te  0.704915  0.895107  0.465975
Te12375  Te  0.716279  0.901686  0.500000
Mo6191  Mo  0.720067  0.895107  0.482988
Te12376  Te  0.716279  0.901686  0.465975
Te12377  Te  0.704915  0.908265  0.500000
Mo6192  Mo  0.708703  0.914844  0.482988
Te12378  Te  0.704915  0.908265  0.465975
Te12379  Te  0.716279  0.914844  0.500000
Mo6193  Mo  0.720067  0.908265  0.482988
Te12380  Te  0.716279  0.914844  0.465975
Te12381  Te  0.704915  0.921423  0.500000
Mo6194  Mo  0.708703  0.928002  0.482988
Te12382  Te  0.704915  0.921423  0.465975
Te12383  Te  0.716279  0.928002  0.500000
Mo6195  Mo  0.720067  0.921423  0.482988
Te12384  Te  0.716279  0.928002  0.465975
Te12385  Te  0.704915  0.934581  0.500000
Mo6196  Mo  0.708703  0.941160  0.482988
Te12386  Te  0.704915  0.934581  0.465975
Te12387  Te  0.716279  0.941160  0.500000
Mo6197  Mo  0.720067  0.934581  0.482988
Te12388  Te  0.716279  0.941160  0.465975
Te12389  Te  0.727642  0.895107  0.500000
Mo6198  Mo  0.731430  0.901686  0.482988
Te12390  Te  0.727642  0.895107  0.465975
Te12391  Te  0.739006  0.901686  0.500000
Mo6199  Mo  0.742794  0.895107  0.482988
Te12392  Te  0.739006  0.901686  0.465975
Te12393  Te  0.727642  0.908265  0.500000
Mo6200  Mo  0.731430  0.914844  0.482988
Te12394  Te  0.727642  0.908265  0.465975
Te12395  Te  0.739006  0.914844  0.500000
Mo6201  Mo  0.742794  0.908265  0.482988
Te12396  Te  0.739006  0.914844  0.465975
Te12397  Te  0.727642  0.921423  0.500000
Mo6202  Mo  0.731430  0.928002  0.482988
Te12398  Te  0.727642  0.921423  0.465975
Te12399  Te  0.739006  0.928002  0.500000
Mo6203  Mo  0.742794  0.921423  0.482988
Te12400  Te  0.739006  0.928002  0.465975
Te12401  Te  0.727642  0.934581  0.500000
Mo6204  Mo  0.731430  0.941160  0.482988
Te12402  Te  0.727642  0.934581  0.465975
Te12403  Te  0.739006  0.941160  0.500000
Mo6205  Mo  0.742794  0.934581  0.482988
Te12404  Te  0.739006  0.941160  0.465975
Te12405  Te  0.750370  0.895107  0.500000
Mo6206  Mo  0.754158  0.901686  0.482988
Te12406  Te  0.750370  0.895107  0.465975
Te12407  Te  0.761733  0.901686  0.500000
Mo6207  Mo  0.765521  0.895107  0.482988
Te12408  Te  0.761733  0.901686  0.465975
Te12409  Te  0.750370  0.908265  0.500000
Mo6208  Mo  0.754158  0.914844  0.482988
Te12410  Te  0.750370  0.908265  0.465975
Te12411  Te  0.761733  0.914844  0.500000
Mo6209  Mo  0.765521  0.908265  0.482988
Te12412  Te  0.761733  0.914844  0.465975
Te12413  Te  0.750370  0.921423  0.500000
Mo6210  Mo  0.754158  0.928002  0.482988
Te12414  Te  0.750370  0.921423  0.465975
Te12415  Te  0.761733  0.928002  0.500000
Mo6211  Mo  0.765521  0.921423  0.482988
Te12416  Te  0.761733  0.928002  0.465975
Te12417  Te  0.750370  0.934581  0.500000
Mo6212  Mo  0.754158  0.941160  0.482988
Te12418  Te  0.750370  0.934581  0.465975
Te12419  Te  0.761733  0.941160  0.500000
Mo6213  Mo  0.765521  0.934581  0.482988
Te12420  Te  0.761733  0.941160  0.465975
Te12421  Te  0.773097  0.895107  0.500000
Mo6214  Mo  0.776885  0.901686  0.482988
Te12422  Te  0.773097  0.895107  0.465975
Te12423  Te  0.784461  0.901686  0.500000
Mo6215  Mo  0.788248  0.895107  0.482988
Te12424  Te  0.784461  0.901686  0.465975
Te12425  Te  0.773097  0.908265  0.500000
Mo6216  Mo  0.776885  0.914844  0.482988
Te12426  Te  0.773097  0.908265  0.465975
Te12427  Te  0.784461  0.914844  0.500000
Mo6217  Mo  0.788248  0.908265  0.482988
Te12428  Te  0.784461  0.914844  0.465975
Te12429  Te  0.773097  0.921423  0.500000
Mo6218  Mo  0.776885  0.928002  0.482988
Te12430  Te  0.773097  0.921423  0.465975
Te12431  Te  0.784461  0.928002  0.500000
Mo6219  Mo  0.788248  0.921423  0.482988
Te12432  Te  0.784461  0.928002  0.465975
Te12433  Te  0.773097  0.934581  0.500000
Mo6220  Mo  0.776885  0.941160  0.482988
Te12434  Te  0.773097  0.934581  0.465975
Te12435  Te  0.784461  0.941160  0.500000
Mo6221  Mo  0.788248  0.934581  0.482988
Te12436  Te  0.784461  0.941160  0.465975
Te12437  Te  0.795824  0.895107  0.500000
Mo6222  Mo  0.799612  0.901686  0.482988
Te12438  Te  0.795824  0.895107  0.465975
Te12439  Te  0.807188  0.901686  0.500000
Mo6223  Mo  0.810976  0.895107  0.482988
Te12440  Te  0.807188  0.901686  0.465975
Te12441  Te  0.795824  0.908265  0.500000
Mo6224  Mo  0.799612  0.914844  0.482988
Te12442  Te  0.795824  0.908265  0.465975
Te12443  Te  0.807188  0.914844  0.500000
Mo6225  Mo  0.810976  0.908265  0.482988
Te12444  Te  0.807188  0.914844  0.465975
Te12445  Te  0.795824  0.921423  0.500000
Mo6226  Mo  0.799612  0.928002  0.482988
Te12446  Te  0.795824  0.921423  0.465975
Te12447  Te  0.807188  0.928002  0.500000
Mo6227  Mo  0.810976  0.921423  0.482988
Te12448  Te  0.807188  0.928002  0.465975
Te12449  Te  0.795824  0.934581  0.500000
Mo6228  Mo  0.799612  0.941160  0.482988
Te12450  Te  0.795824  0.934581  0.465975
Te12451  Te  0.807188  0.941160  0.500000
Mo6229  Mo  0.810976  0.934581  0.482988
Te12452  Te  0.807188  0.941160  0.465975
Te12453  Te  0.818551  0.895107  0.500000
Mo6230  Mo  0.822339  0.901686  0.482988
Te12454  Te  0.818551  0.895107  0.465975
Te12455  Te  0.829915  0.901686  0.500000
Mo6231  Mo  0.833703  0.895107  0.482988
Te12456  Te  0.829915  0.901686  0.465975
Te12457  Te  0.818551  0.908265  0.500000
Mo6232  Mo  0.822339  0.914844  0.482988
Te12458  Te  0.818551  0.908265  0.465975
Te12459  Te  0.829915  0.914844  0.500000
Mo6233  Mo  0.833703  0.908265  0.482988
Te12460  Te  0.829915  0.914844  0.465975
Te12461  Te  0.818551  0.921423  0.500000
Mo6234  Mo  0.822339  0.928002  0.482988
Te12462  Te  0.818551  0.921423  0.465975
Te12463  Te  0.829915  0.928002  0.500000
Mo6235  Mo  0.833703  0.921423  0.482988
Te12464  Te  0.829915  0.928002  0.465975
Te12465  Te  0.818551  0.934581  0.500000
Mo6236  Mo  0.822339  0.941160  0.482988
Te12466  Te  0.818551  0.934581  0.465975
Te12467  Te  0.829915  0.941160  0.500000
Mo6237  Mo  0.833703  0.934581  0.482988
Te12468  Te  0.829915  0.941160  0.465975
Te12469  Te  0.841279  0.895107  0.500000
Mo6238  Mo  0.845067  0.901686  0.482988
Te12470  Te  0.841279  0.895107  0.465975
Te12471  Te  0.852642  0.901686  0.500000
Mo6239  Mo  0.856430  0.895107  0.482988
Te12472  Te  0.852642  0.901686  0.465975
Te12473  Te  0.841279  0.908265  0.500000
Mo6240  Mo  0.845067  0.914844  0.482988
Te12474  Te  0.841279  0.908265  0.465975
Te12475  Te  0.852642  0.914844  0.500000
Mo6241  Mo  0.856430  0.908265  0.482988
Te12476  Te  0.852642  0.914844  0.465975
Te12477  Te  0.841279  0.921423  0.500000
Mo6242  Mo  0.845067  0.928002  0.482988
Te12478  Te  0.841279  0.921423  0.465975
Te12479  Te  0.852642  0.928002  0.500000
Mo6243  Mo  0.856430  0.921423  0.482988
Te12480  Te  0.852642  0.928002  0.465975
Te12481  Te  0.841279  0.934581  0.500000
Mo6244  Mo  0.845067  0.941160  0.482988
Te12482  Te  0.841279  0.934581  0.465975
Te12483  Te  0.852642  0.941160  0.500000
Mo6245  Mo  0.856430  0.934581  0.482988
Te12484  Te  0.852642  0.941160  0.465975
Te12485  Te  0.864006  0.895107  0.500000
Mo6246  Mo  0.867794  0.901686  0.482988
Te12486  Te  0.864006  0.895107  0.465975
Te12487  Te  0.875370  0.901686  0.500000
Mo6247  Mo  0.879158  0.895107  0.482988
Te12488  Te  0.875370  0.901686  0.465975
Te12489  Te  0.864006  0.908265  0.500000
Mo6248  Mo  0.867794  0.914844  0.482988
Te12490  Te  0.864006  0.908265  0.465975
Te12491  Te  0.875370  0.914844  0.500000
Mo6249  Mo  0.879158  0.908265  0.482988
Te12492  Te  0.875370  0.914844  0.465975
Te12493  Te  0.864006  0.921423  0.500000
Mo6250  Mo  0.867794  0.928002  0.482988
Te12494  Te  0.864006  0.921423  0.465975
Te12495  Te  0.875370  0.928002  0.500000
Mo6251  Mo  0.879158  0.921423  0.482988
Te12496  Te  0.875370  0.928002  0.465975
Te12497  Te  0.864006  0.934581  0.500000
Mo6252  Mo  0.867794  0.941160  0.482988
Te12498  Te  0.864006  0.934581  0.465975
Te12499  Te  0.875370  0.941160  0.500000
Mo6253  Mo  0.879158  0.934581  0.482988
Te12500  Te  0.875370  0.941160  0.465975
Te12501  Te  0.886733  0.895107  0.500000
Mo6254  Mo  0.890521  0.901686  0.482988
Te12502  Te  0.886733  0.895107  0.465975
Te12503  Te  0.898097  0.901686  0.500000
Mo6255  Mo  0.901885  0.895107  0.482988
Te12504  Te  0.898097  0.901686  0.465975
Te12505  Te  0.886733  0.908265  0.500000
Mo6256  Mo  0.890521  0.914844  0.482988
Te12506  Te  0.886733  0.908265  0.465975
Te12507  Te  0.898097  0.914844  0.500000
Mo6257  Mo  0.901885  0.908265  0.482988
Te12508  Te  0.898097  0.914844  0.465975
Te12509  Te  0.886733  0.921423  0.500000
Mo6258  Mo  0.890521  0.928002  0.482988
Te12510  Te  0.886733  0.921423  0.465975
Te12511  Te  0.898097  0.928002  0.500000
Mo6259  Mo  0.901885  0.921423  0.482988
Te12512  Te  0.898097  0.928002  0.465975
Te12513  Te  0.886733  0.934581  0.500000
Mo6260  Mo  0.890521  0.941160  0.482988
Te12514  Te  0.886733  0.934581  0.465975
Te12515  Te  0.898097  0.941160  0.500000
Mo6261  Mo  0.901885  0.934581  0.482988
Te12516  Te  0.898097  0.941160  0.465975
Te12517  Te  0.909461  0.895107  0.500000
Mo6262  Mo  0.913248  0.901686  0.482988
Te12518  Te  0.909461  0.895107  0.465975
Te12519  Te  0.920824  0.901686  0.500000
Mo6263  Mo  0.924612  0.895107  0.482988
Te12520  Te  0.920824  0.901686  0.465975
Te12521  Te  0.909461  0.908265  0.500000
Mo6264  Mo  0.913248  0.914844  0.482988
Te12522  Te  0.909461  0.908265  0.465975
Te12523  Te  0.920824  0.914844  0.500000
Mo6265  Mo  0.924612  0.908265  0.482988
Te12524  Te  0.920824  0.914844  0.465975
Te12525  Te  0.909461  0.921423  0.500000
Mo6266  Mo  0.913248  0.928002  0.482988
Te12526  Te  0.909461  0.921423  0.465975
Te12527  Te  0.920824  0.928002  0.500000
Mo6267  Mo  0.924612  0.921423  0.482988
Te12528  Te  0.920824  0.928002  0.465975
Te12529  Te  0.909461  0.934581  0.500000
Mo6268  Mo  0.913248  0.941160  0.482988
Te12530  Te  0.909461  0.934581  0.465975
Te12531  Te  0.920824  0.941160  0.500000
Mo6269  Mo  0.924612  0.934581  0.482988
Te12532  Te  0.920824  0.941160  0.465975
Te12533  Te  0.932188  0.895107  0.500000
Mo6270  Mo  0.935976  0.901686  0.482988
Te12534  Te  0.932188  0.895107  0.465975
Te12535  Te  0.943552  0.901686  0.500000
Mo6271  Mo  0.947339  0.895107  0.482988
Te12536  Te  0.943552  0.901686  0.465975
Te12537  Te  0.932188  0.908265  0.500000
Mo6272  Mo  0.935976  0.914844  0.482988
Te12538  Te  0.932188  0.908265  0.465975
Te12539  Te  0.943552  0.914844  0.500000
Mo6273  Mo  0.947339  0.908265  0.482988
Te12540  Te  0.943552  0.914844  0.465975
Te12541  Te  0.932188  0.921423  0.500000
Mo6274  Mo  0.935976  0.928002  0.482988
Te12542  Te  0.932188  0.921423  0.465975
Te12543  Te  0.943552  0.928002  0.500000
Mo6275  Mo  0.947339  0.921423  0.482988
Te12544  Te  0.943552  0.928002  0.465975
Te12545  Te  0.932188  0.934581  0.500000
Mo6276  Mo  0.935976  0.941160  0.482988
Te12546  Te  0.932188  0.934581  0.465975
Te12547  Te  0.943552  0.941160  0.500000
Mo6277  Mo  0.947339  0.934581  0.482988
Te12548  Te  0.943552  0.941160  0.465975
Te12549  Te  0.954915  0.895107  0.500000
Mo6278  Mo  0.958703  0.901686  0.482988
Te12550  Te  0.954915  0.895107  0.465975
Te12551  Te  0.966279  0.901686  0.500000
Mo6279  Mo  0.970067  0.895107  0.482988
Te12552  Te  0.966279  0.901686  0.465975
Te12553  Te  0.954915  0.908265  0.500000
Mo6280  Mo  0.958703  0.914844  0.482988
Te12554  Te  0.954915  0.908265  0.465975
Te12555  Te  0.966279  0.914844  0.500000
Mo6281  Mo  0.970067  0.908265  0.482988
Te12556  Te  0.966279  0.914844  0.465975
Te12557  Te  0.954915  0.921423  0.500000
Mo6282  Mo  0.958703  0.928002  0.482988
Te12558  Te  0.954915  0.921423  0.465975
Te12559  Te  0.966279  0.928002  0.500000
Mo6283  Mo  0.970067  0.921423  0.482988
Te12560  Te  0.966279  0.928002  0.465975
Te12561  Te  0.954915  0.934581  0.500000
Mo6284  Mo  0.958703  0.941160  0.482988
Te12562  Te  0.954915  0.934581  0.465975
Te12563  Te  0.966279  0.941160  0.500000
Mo6285  Mo  0.970067  0.934581  0.482988
Te12564  Te  0.966279  0.941160  0.465975
Te12565  Te  0.977642  0.895107  0.500000
Mo6286  Mo  0.981430  0.901686  0.482988
Te12566  Te  0.977642  0.895107  0.465975
Te12567  Te  0.989006  0.901686  0.500000
Mo6287  Mo  0.992794  0.895107  0.482988
Te12568  Te  0.989006  0.901686  0.465975
Te12569  Te  0.977642  0.908265  0.500000
Mo6288  Mo  0.981430  0.914844  0.482988
Te12570  Te  0.977642  0.908265  0.465975
Te12571  Te  0.989006  0.914844  0.500000
Mo6289  Mo  0.992794  0.908265  0.482988
Te12572  Te  0.989006  0.914844  0.465975
Te12573  Te  0.977642  0.921423  0.500000
Mo6290  Mo  0.981430  0.928002  0.482988
Te12574  Te  0.977642  0.921423  0.465975
Te12575  Te  0.989006  0.928002  0.500000
Mo6291  Mo  0.992794  0.921423  0.482988
Te12576  Te  0.989006  0.928002  0.465975
Te12577  Te  0.977642  0.934581  0.500000
Mo6292  Mo  0.981430  0.941160  0.482988
Te12578  Te  0.977642  0.934581  0.465975
Te12579  Te  0.989006  0.941160  0.500000
Mo6293  Mo  0.992794  0.934581  0.482988
Te12580  Te  0.989006  0.941160  0.465975
Te12581  Te  0.000370  0.947739  0.500000
Mo6294  Mo  0.004158  0.954318  0.482988
Te12582  Te  0.000370  0.947739  0.465975
Te12583  Te  0.011733  0.954318  0.500000
Mo6295  Mo  0.015521  0.947739  0.482988
Te12584  Te  0.011733  0.954318  0.465975
Te12585  Te  0.000370  0.960897  0.500000
Mo6296  Mo  0.004158  0.967476  0.482988
Te12586  Te  0.000370  0.960897  0.465975
Te12587  Te  0.011733  0.967476  0.500000
Mo6297  Mo  0.015521  0.960897  0.482988
Te12588  Te  0.011733  0.967476  0.465975
Te12589  Te  0.000370  0.974055  0.500000
Mo6298  Mo  0.004158  0.980634  0.482988
Te12590  Te  0.000370  0.974055  0.465975
Te12591  Te  0.011733  0.980634  0.500000
Mo6299  Mo  0.015521  0.974055  0.482988
Te12592  Te  0.011733  0.980634  0.465975
Te12593  Te  0.000370  0.987213  0.500000
Mo6300  Mo  0.004158  0.993792  0.482988
Te12594  Te  0.000370  0.987213  0.465975
Te12595  Te  0.011733  0.993792  0.500000
Mo6301  Mo  0.015521  0.987213  0.482988
Te12596  Te  0.011733  0.993792  0.465975
Te12597  Te  0.023097  0.947739  0.500000
Mo6302  Mo  0.026885  0.954318  0.482988
Te12598  Te  0.023097  0.947739  0.465975
Te12599  Te  0.034461  0.954318  0.500000
Mo6303  Mo  0.038249  0.947739  0.482988
Te12600  Te  0.034461  0.954318  0.465975
Te12601  Te  0.023097  0.960897  0.500000
Mo6304  Mo  0.026885  0.967476  0.482988
Te12602  Te  0.023097  0.960897  0.465975
Te12603  Te  0.034461  0.967476  0.500000
Mo6305  Mo  0.038249  0.960897  0.482988
Te12604  Te  0.034461  0.967476  0.465975
Te12605  Te  0.023097  0.974055  0.500000
Mo6306  Mo  0.026885  0.980634  0.482988
Te12606  Te  0.023097  0.974055  0.465975
Te12607  Te  0.034461  0.980634  0.500000
Mo6307  Mo  0.038249  0.974055  0.482988
Te12608  Te  0.034461  0.980634  0.465975
Te12609  Te  0.023097  0.987213  0.500000
Mo6308  Mo  0.026885  0.993792  0.482988
Te12610  Te  0.023097  0.987213  0.465975
Te12611  Te  0.034461  0.993792  0.500000
Mo6309  Mo  0.038249  0.987213  0.482988
Te12612  Te  0.034461  0.993792  0.465975
Te12613  Te  0.045824  0.947739  0.500000
Mo6310  Mo  0.049612  0.954318  0.482988
Te12614  Te  0.045824  0.947739  0.465975
Te12615  Te  0.057188  0.954318  0.500000
Mo6311  Mo  0.060976  0.947739  0.482988
Te12616  Te  0.057188  0.954318  0.465975
Te12617  Te  0.045824  0.960897  0.500000
Mo6312  Mo  0.049612  0.967476  0.482988
Te12618  Te  0.045824  0.960897  0.465975
Te12619  Te  0.057188  0.967476  0.500000
Mo6313  Mo  0.060976  0.960897  0.482988
Te12620  Te  0.057188  0.967476  0.465975
Te12621  Te  0.045824  0.974055  0.500000
Mo6314  Mo  0.049612  0.980634  0.482988
Te12622  Te  0.045824  0.974055  0.465975
Te12623  Te  0.057188  0.980634  0.500000
Mo6315  Mo  0.060976  0.974055  0.482988
Te12624  Te  0.057188  0.980634  0.465975
Te12625  Te  0.045824  0.987213  0.500000
Mo6316  Mo  0.049612  0.993792  0.482988
Te12626  Te  0.045824  0.987213  0.465975
Te12627  Te  0.057188  0.993792  0.500000
Mo6317  Mo  0.060976  0.987213  0.482988
Te12628  Te  0.057188  0.993792  0.465975
Te12629  Te  0.068552  0.947739  0.500000
Mo6318  Mo  0.072339  0.954318  0.482988
Te12630  Te  0.068552  0.947739  0.465975
Te12631  Te  0.079915  0.954318  0.500000
Mo6319  Mo  0.083703  0.947739  0.482988
Te12632  Te  0.079915  0.954318  0.465975
Te12633  Te  0.068552  0.960897  0.500000
Mo6320  Mo  0.072339  0.967476  0.482988
Te12634  Te  0.068552  0.960897  0.465975
Te12635  Te  0.079915  0.967476  0.500000
Mo6321  Mo  0.083703  0.960897  0.482988
Te12636  Te  0.079915  0.967476  0.465975
Te12637  Te  0.068552  0.974055  0.500000
Mo6322  Mo  0.072339  0.980634  0.482988
Te12638  Te  0.068552  0.974055  0.465975
Te12639  Te  0.079915  0.980634  0.500000
Mo6323  Mo  0.083703  0.974055  0.482988
Te12640  Te  0.079915  0.980634  0.465975
Te12641  Te  0.068552  0.987213  0.500000
Mo6324  Mo  0.072339  0.993792  0.482988
Te12642  Te  0.068552  0.987213  0.465975
Te12643  Te  0.079915  0.993792  0.500000
Mo6325  Mo  0.083703  0.987213  0.482988
Te12644  Te  0.079915  0.993792  0.465975
Te12645  Te  0.091279  0.947739  0.500000
Mo6326  Mo  0.095067  0.954318  0.482988
Te12646  Te  0.091279  0.947739  0.465975
Te12647  Te  0.102642  0.954318  0.500000
Mo6327  Mo  0.106430  0.947739  0.482988
Te12648  Te  0.102642  0.954318  0.465975
Te12649  Te  0.091279  0.960897  0.500000
Mo6328  Mo  0.095067  0.967476  0.482988
Te12650  Te  0.091279  0.960897  0.465975
Te12651  Te  0.102642  0.967476  0.500000
Mo6329  Mo  0.106430  0.960897  0.482988
Te12652  Te  0.102642  0.967476  0.465975
Te12653  Te  0.091279  0.974055  0.500000
Mo6330  Mo  0.095067  0.980634  0.482988
Te12654  Te  0.091279  0.974055  0.465975
Te12655  Te  0.102642  0.980634  0.500000
Mo6331  Mo  0.106430  0.974055  0.482988
Te12656  Te  0.102642  0.980634  0.465975
Te12657  Te  0.091279  0.987213  0.500000
Mo6332  Mo  0.095067  0.993792  0.482988
Te12658  Te  0.091279  0.987213  0.465975
Te12659  Te  0.102642  0.993792  0.500000
Mo6333  Mo  0.106430  0.987213  0.482988
Te12660  Te  0.102642  0.993792  0.465975
Te12661  Te  0.114006  0.947739  0.500000
Mo6334  Mo  0.117794  0.954318  0.482988
Te12662  Te  0.114006  0.947739  0.465975
Te12663  Te  0.125370  0.954318  0.500000
Mo6335  Mo  0.129158  0.947739  0.482988
Te12664  Te  0.125370  0.954318  0.465975
Te12665  Te  0.114006  0.960897  0.500000
Mo6336  Mo  0.117794  0.967476  0.482988
Te12666  Te  0.114006  0.960897  0.465975
Te12667  Te  0.125370  0.967476  0.500000
Mo6337  Mo  0.129158  0.960897  0.482988
Te12668  Te  0.125370  0.967476  0.465975
Te12669  Te  0.114006  0.974055  0.500000
Mo6338  Mo  0.117794  0.980634  0.482988
Te12670  Te  0.114006  0.974055  0.465975
Te12671  Te  0.125370  0.980634  0.500000
Mo6339  Mo  0.129158  0.974055  0.482988
Te12672  Te  0.125370  0.980634  0.465975
Te12673  Te  0.114006  0.987213  0.500000
Mo6340  Mo  0.117794  0.993792  0.482988
Te12674  Te  0.114006  0.987213  0.465975
Te12675  Te  0.125370  0.993792  0.500000
Mo6341  Mo  0.129158  0.987213  0.482988
Te12676  Te  0.125370  0.993792  0.465975
Te12677  Te  0.136733  0.947739  0.500000
Mo6342  Mo  0.140521  0.954318  0.482988
Te12678  Te  0.136733  0.947739  0.465975
Te12679  Te  0.148097  0.954318  0.500000
Mo6343  Mo  0.151885  0.947739  0.482988
Te12680  Te  0.148097  0.954318  0.465975
Te12681  Te  0.136733  0.960897  0.500000
Mo6344  Mo  0.140521  0.967476  0.482988
Te12682  Te  0.136733  0.960897  0.465975
Te12683  Te  0.148097  0.967476  0.500000
Mo6345  Mo  0.151885  0.960897  0.482988
Te12684  Te  0.148097  0.967476  0.465975
Te12685  Te  0.136733  0.974055  0.500000
Mo6346  Mo  0.140521  0.980634  0.482988
Te12686  Te  0.136733  0.974055  0.465975
Te12687  Te  0.148097  0.980634  0.500000
Mo6347  Mo  0.151885  0.974055  0.482988
Te12688  Te  0.148097  0.980634  0.465975
Te12689  Te  0.136733  0.987213  0.500000
Mo6348  Mo  0.140521  0.993792  0.482988
Te12690  Te  0.136733  0.987213  0.465975
Te12691  Te  0.148097  0.993792  0.500000
Mo6349  Mo  0.151885  0.987213  0.482988
Te12692  Te  0.148097  0.993792  0.465975
Te12693  Te  0.159461  0.947739  0.500000
Mo6350  Mo  0.163248  0.954318  0.482988
Te12694  Te  0.159461  0.947739  0.465975
Te12695  Te  0.170824  0.954318  0.500000
Mo6351  Mo  0.174612  0.947739  0.482988
Te12696  Te  0.170824  0.954318  0.465975
Te12697  Te  0.159461  0.960897  0.500000
Mo6352  Mo  0.163248  0.967476  0.482988
Te12698  Te  0.159461  0.960897  0.465975
Te12699  Te  0.170824  0.967476  0.500000
Mo6353  Mo  0.174612  0.960897  0.482988
Te12700  Te  0.170824  0.967476  0.465975
Te12701  Te  0.159461  0.974055  0.500000
Mo6354  Mo  0.163248  0.980634  0.482988
Te12702  Te  0.159461  0.974055  0.465975
Te12703  Te  0.170824  0.980634  0.500000
Mo6355  Mo  0.174612  0.974055  0.482988
Te12704  Te  0.170824  0.980634  0.465975
Te12705  Te  0.159461  0.987213  0.500000
Mo6356  Mo  0.163248  0.993792  0.482988
Te12706  Te  0.159461  0.987213  0.465975
Te12707  Te  0.170824  0.993792  0.500000
Mo6357  Mo  0.174612  0.987213  0.482988
Te12708  Te  0.170824  0.993792  0.465975
Te12709  Te  0.182188  0.947739  0.500000
Mo6358  Mo  0.185976  0.954318  0.482988
Te12710  Te  0.182188  0.947739  0.465975
Te12711  Te  0.193551  0.954318  0.500000
Mo6359  Mo  0.197339  0.947739  0.482988
Te12712  Te  0.193551  0.954318  0.465975
Te12713  Te  0.182188  0.960897  0.500000
Mo6360  Mo  0.185976  0.967476  0.482988
Te12714  Te  0.182188  0.960897  0.465975
Te12715  Te  0.193551  0.967476  0.500000
Mo6361  Mo  0.197339  0.960897  0.482988
Te12716  Te  0.193551  0.967476  0.465975
Te12717  Te  0.182188  0.974055  0.500000
Mo6362  Mo  0.185976  0.980634  0.482988
Te12718  Te  0.182188  0.974055  0.465975
Te12719  Te  0.193551  0.980634  0.500000
Mo6363  Mo  0.197339  0.974055  0.482988
Te12720  Te  0.193551  0.980634  0.465975
Te12721  Te  0.182188  0.987213  0.500000
Mo6364  Mo  0.185976  0.993792  0.482988
Te12722  Te  0.182188  0.987213  0.465975
Te12723  Te  0.193551  0.993792  0.500000
Mo6365  Mo  0.197339  0.987213  0.482988
Te12724  Te  0.193551  0.993792  0.465975
Te12725  Te  0.204915  0.947739  0.500000
Mo6366  Mo  0.208703  0.954318  0.482988
Te12726  Te  0.204915  0.947739  0.465975
Te12727  Te  0.216279  0.954318  0.500000
Mo6367  Mo  0.220067  0.947739  0.482988
Te12728  Te  0.216279  0.954318  0.465975
Te12729  Te  0.204915  0.960897  0.500000
Mo6368  Mo  0.208703  0.967476  0.482988
Te12730  Te  0.204915  0.960897  0.465975
Te12731  Te  0.216279  0.967476  0.500000
Mo6369  Mo  0.220067  0.960897  0.482988
Te12732  Te  0.216279  0.967476  0.465975
Te12733  Te  0.204915  0.974055  0.500000
Mo6370  Mo  0.208703  0.980634  0.482988
Te12734  Te  0.204915  0.974055  0.465975
Te12735  Te  0.216279  0.980634  0.500000
Mo6371  Mo  0.220067  0.974055  0.482988
Te12736  Te  0.216279  0.980634  0.465975
Te12737  Te  0.204915  0.987213  0.500000
Mo6372  Mo  0.208703  0.993792  0.482988
Te12738  Te  0.204915  0.987213  0.465975
Te12739  Te  0.216279  0.993792  0.500000
Mo6373  Mo  0.220067  0.987213  0.482988
Te12740  Te  0.216279  0.993792  0.465975
Te12741  Te  0.227642  0.947739  0.500000
Mo6374  Mo  0.231430  0.954318  0.482988
Te12742  Te  0.227642  0.947739  0.465975
Te12743  Te  0.239006  0.954318  0.500000
Mo6375  Mo  0.242794  0.947739  0.482988
Te12744  Te  0.239006  0.954318  0.465975
Te12745  Te  0.227642  0.960897  0.500000
Mo6376  Mo  0.231430  0.967476  0.482988
Te12746  Te  0.227642  0.960897  0.465975
Te12747  Te  0.239006  0.967476  0.500000
Mo6377  Mo  0.242794  0.960897  0.482988
Te12748  Te  0.239006  0.967476  0.465975
Te12749  Te  0.227642  0.974055  0.500000
Mo6378  Mo  0.231430  0.980634  0.482988
Te12750  Te  0.227642  0.974055  0.465975
Te12751  Te  0.239006  0.980634  0.500000
Mo6379  Mo  0.242794  0.974055  0.482988
Te12752  Te  0.239006  0.980634  0.465975
Te12753  Te  0.227642  0.987213  0.500000
Mo6380  Mo  0.231430  0.993792  0.482988
Te12754  Te  0.227642  0.987213  0.465975
Te12755  Te  0.239006  0.993792  0.500000
Mo6381  Mo  0.242794  0.987213  0.482988
Te12756  Te  0.239006  0.993792  0.465975
Te12757  Te  0.250370  0.947739  0.500000
Mo6382  Mo  0.254158  0.954318  0.482988
Te12758  Te  0.250370  0.947739  0.465975
Te12759  Te  0.261733  0.954318  0.500000
Mo6383  Mo  0.265521  0.947739  0.482988
Te12760  Te  0.261733  0.954318  0.465975
Te12761  Te  0.250370  0.960897  0.500000
Mo6384  Mo  0.254158  0.967476  0.482988
Te12762  Te  0.250370  0.960897  0.465975
Te12763  Te  0.261733  0.967476  0.500000
Mo6385  Mo  0.265521  0.960897  0.482988
Te12764  Te  0.261733  0.967476  0.465975
Te12765  Te  0.250370  0.974055  0.500000
Mo6386  Mo  0.254158  0.980634  0.482988
Te12766  Te  0.250370  0.974055  0.465975
Te12767  Te  0.261733  0.980634  0.500000
Mo6387  Mo  0.265521  0.974055  0.482988
Te12768  Te  0.261733  0.980634  0.465975
Te12769  Te  0.250370  0.987213  0.500000
Mo6388  Mo  0.254158  0.993792  0.482988
Te12770  Te  0.250370  0.987213  0.465975
Te12771  Te  0.261733  0.993792  0.500000
Mo6389  Mo  0.265521  0.987213  0.482988
Te12772  Te  0.261733  0.993792  0.465975
Te12773  Te  0.273097  0.947739  0.500000
Mo6390  Mo  0.276885  0.954318  0.482988
Te12774  Te  0.273097  0.947739  0.465975
Te12775  Te  0.284461  0.954318  0.500000
Mo6391  Mo  0.288248  0.947739  0.482988
Te12776  Te  0.284461  0.954318  0.465975
Te12777  Te  0.273097  0.960897  0.500000
Mo6392  Mo  0.276885  0.967476  0.482988
Te12778  Te  0.273097  0.960897  0.465975
Te12779  Te  0.284461  0.967476  0.500000
Mo6393  Mo  0.288248  0.960897  0.482988
Te12780  Te  0.284461  0.967476  0.465975
Te12781  Te  0.273097  0.974055  0.500000
Mo6394  Mo  0.276885  0.980634  0.482988
Te12782  Te  0.273097  0.974055  0.465975
Te12783  Te  0.284461  0.980634  0.500000
Mo6395  Mo  0.288248  0.974055  0.482988
Te12784  Te  0.284461  0.980634  0.465975
Te12785  Te  0.273097  0.987213  0.500000
Mo6396  Mo  0.276885  0.993792  0.482988
Te12786  Te  0.273097  0.987213  0.465975
Te12787  Te  0.284461  0.993792  0.500000
Mo6397  Mo  0.288248  0.987213  0.482988
Te12788  Te  0.284461  0.993792  0.465975
Te12789  Te  0.295824  0.947739  0.500000
Mo6398  Mo  0.299612  0.954318  0.482988
Te12790  Te  0.295824  0.947739  0.465975
Te12791  Te  0.307188  0.954318  0.500000
Mo6399  Mo  0.310976  0.947739  0.482988
Te12792  Te  0.307188  0.954318  0.465975
Te12793  Te  0.295824  0.960897  0.500000
Mo6400  Mo  0.299612  0.967476  0.482988
Te12794  Te  0.295824  0.960897  0.465975
Te12795  Te  0.307188  0.967476  0.500000
Mo6401  Mo  0.310976  0.960897  0.482988
Te12796  Te  0.307188  0.967476  0.465975
Te12797  Te  0.295824  0.974055  0.500000
Mo6402  Mo  0.299612  0.980634  0.482988
Te12798  Te  0.295824  0.974055  0.465975
Te12799  Te  0.307188  0.980634  0.500000
Mo6403  Mo  0.310976  0.974055  0.482988
Te12800  Te  0.307188  0.980634  0.465975
Te12801  Te  0.295824  0.987213  0.500000
Mo6404  Mo  0.299612  0.993792  0.482988
Te12802  Te  0.295824  0.987213  0.465975
Te12803  Te  0.307188  0.993792  0.500000
Mo6405  Mo  0.310976  0.987213  0.482988
Te12804  Te  0.307188  0.993792  0.465975
Te12805  Te  0.318551  0.947739  0.500000
Mo6406  Mo  0.322339  0.954318  0.482988
Te12806  Te  0.318551  0.947739  0.465975
Te12807  Te  0.329915  0.954318  0.500000
Mo6407  Mo  0.333703  0.947739  0.482988
Te12808  Te  0.329915  0.954318  0.465975
Te12809  Te  0.318551  0.960897  0.500000
Mo6408  Mo  0.322339  0.967476  0.482988
Te12810  Te  0.318551  0.960897  0.465975
Te12811  Te  0.329915  0.967476  0.500000
Mo6409  Mo  0.333703  0.960897  0.482988
Te12812  Te  0.329915  0.967476  0.465975
Te12813  Te  0.318551  0.974055  0.500000
Mo6410  Mo  0.322339  0.980634  0.482988
Te12814  Te  0.318551  0.974055  0.465975
Te12815  Te  0.329915  0.980634  0.500000
Mo6411  Mo  0.333703  0.974055  0.482988
Te12816  Te  0.329915  0.980634  0.465975
Te12817  Te  0.318551  0.987213  0.500000
Mo6412  Mo  0.322339  0.993792  0.482988
Te12818  Te  0.318551  0.987213  0.465975
Te12819  Te  0.329915  0.993792  0.500000
Mo6413  Mo  0.333703  0.987213  0.482988
Te12820  Te  0.329915  0.993792  0.465975
Te12821  Te  0.341279  0.947739  0.500000
Mo6414  Mo  0.345067  0.954318  0.482988
Te12822  Te  0.341279  0.947739  0.465975
Te12823  Te  0.352642  0.954318  0.500000
Mo6415  Mo  0.356430  0.947739  0.482988
Te12824  Te  0.352642  0.954318  0.465975
Te12825  Te  0.341279  0.960897  0.500000
Mo6416  Mo  0.345067  0.967476  0.482988
Te12826  Te  0.341279  0.960897  0.465975
Te12827  Te  0.352642  0.967476  0.500000
Mo6417  Mo  0.356430  0.960897  0.482988
Te12828  Te  0.352642  0.967476  0.465975
Te12829  Te  0.341279  0.974055  0.500000
Mo6418  Mo  0.345067  0.980634  0.482988
Te12830  Te  0.341279  0.974055  0.465975
Te12831  Te  0.352642  0.980634  0.500000
Mo6419  Mo  0.356430  0.974055  0.482988
Te12832  Te  0.352642  0.980634  0.465975
Te12833  Te  0.341279  0.987213  0.500000
Mo6420  Mo  0.345067  0.993792  0.482988
Te12834  Te  0.341279  0.987213  0.465975
Te12835  Te  0.352642  0.993792  0.500000
Mo6421  Mo  0.356430  0.987213  0.482988
Te12836  Te  0.352642  0.993792  0.465975
Te12837  Te  0.364006  0.947739  0.500000
Mo6422  Mo  0.367794  0.954318  0.482988
Te12838  Te  0.364006  0.947739  0.465975
Te12839  Te  0.375370  0.954318  0.500000
Mo6423  Mo  0.379158  0.947739  0.482988
Te12840  Te  0.375370  0.954318  0.465975
Te12841  Te  0.364006  0.960897  0.500000
Mo6424  Mo  0.367794  0.967476  0.482988
Te12842  Te  0.364006  0.960897  0.465975
Te12843  Te  0.375370  0.967476  0.500000
Mo6425  Mo  0.379158  0.960897  0.482988
Te12844  Te  0.375370  0.967476  0.465975
Te12845  Te  0.364006  0.974055  0.500000
Mo6426  Mo  0.367794  0.980634  0.482988
Te12846  Te  0.364006  0.974055  0.465975
Te12847  Te  0.375370  0.980634  0.500000
Mo6427  Mo  0.379158  0.974055  0.482988
Te12848  Te  0.375370  0.980634  0.465975
Te12849  Te  0.364006  0.987213  0.500000
Mo6428  Mo  0.367794  0.993792  0.482988
Te12850  Te  0.364006  0.987213  0.465975
Te12851  Te  0.375370  0.993792  0.500000
Mo6429  Mo  0.379158  0.987213  0.482988
Te12852  Te  0.375370  0.993792  0.465975
Te12853  Te  0.386733  0.947739  0.500000
Mo6430  Mo  0.390521  0.954318  0.482988
Te12854  Te  0.386733  0.947739  0.465975
Te12855  Te  0.398097  0.954318  0.500000
Mo6431  Mo  0.401885  0.947739  0.482988
Te12856  Te  0.398097  0.954318  0.465975
Te12857  Te  0.386733  0.960897  0.500000
Mo6432  Mo  0.390521  0.967476  0.482988
Te12858  Te  0.386733  0.960897  0.465975
Te12859  Te  0.398097  0.967476  0.500000
Mo6433  Mo  0.401885  0.960897  0.482988
Te12860  Te  0.398097  0.967476  0.465975
Te12861  Te  0.386733  0.974055  0.500000
Mo6434  Mo  0.390521  0.980634  0.482988
Te12862  Te  0.386733  0.974055  0.465975
Te12863  Te  0.398097  0.980634  0.500000
Mo6435  Mo  0.401885  0.974055  0.482988
Te12864  Te  0.398097  0.980634  0.465975
Te12865  Te  0.386733  0.987213  0.500000
Mo6436  Mo  0.390521  0.993792  0.482988
Te12866  Te  0.386733  0.987213  0.465975
Te12867  Te  0.398097  0.993792  0.500000
Mo6437  Mo  0.401885  0.987213  0.482988
Te12868  Te  0.398097  0.993792  0.465975
Te12869  Te  0.409461  0.947739  0.500000
Mo6438  Mo  0.413248  0.954318  0.482988
Te12870  Te  0.409461  0.947739  0.465975
Te12871  Te  0.420824  0.954318  0.500000
Mo6439  Mo  0.424612  0.947739  0.482988
Te12872  Te  0.420824  0.954318  0.465975
Te12873  Te  0.409461  0.960897  0.500000
Mo6440  Mo  0.413248  0.967476  0.482988
Te12874  Te  0.409461  0.960897  0.465975
Te12875  Te  0.420824  0.967476  0.500000
Mo6441  Mo  0.424612  0.960897  0.482988
Te12876  Te  0.420824  0.967476  0.465975
Te12877  Te  0.409461  0.974055  0.500000
Mo6442  Mo  0.413248  0.980634  0.482988
Te12878  Te  0.409461  0.974055  0.465975
Te12879  Te  0.420824  0.980634  0.500000
Mo6443  Mo  0.424612  0.974055  0.482988
Te12880  Te  0.420824  0.980634  0.465975
Te12881  Te  0.409461  0.987213  0.500000
Mo6444  Mo  0.413248  0.993792  0.482988
Te12882  Te  0.409461  0.987213  0.465975
Te12883  Te  0.420824  0.993792  0.500000
Mo6445  Mo  0.424612  0.987213  0.482988
Te12884  Te  0.420824  0.993792  0.465975
Te12885  Te  0.432188  0.947739  0.500000
Mo6446  Mo  0.435976  0.954318  0.482988
Te12886  Te  0.432188  0.947739  0.465975
Te12887  Te  0.443552  0.954318  0.500000
Mo6447  Mo  0.447339  0.947739  0.482988
Te12888  Te  0.443552  0.954318  0.465975
Te12889  Te  0.432188  0.960897  0.500000
Mo6448  Mo  0.435976  0.967476  0.482988
Te12890  Te  0.432188  0.960897  0.465975
Te12891  Te  0.443552  0.967476  0.500000
Mo6449  Mo  0.447339  0.960897  0.482988
Te12892  Te  0.443552  0.967476  0.465975
Te12893  Te  0.432188  0.974055  0.500000
Mo6450  Mo  0.435976  0.980634  0.482988
Te12894  Te  0.432188  0.974055  0.465975
Te12895  Te  0.443552  0.980634  0.500000
Mo6451  Mo  0.447339  0.974055  0.482988
Te12896  Te  0.443552  0.980634  0.465975
Te12897  Te  0.432188  0.987213  0.500000
Mo6452  Mo  0.435976  0.993792  0.482988
Te12898  Te  0.432188  0.987213  0.465975
Te12899  Te  0.443552  0.993792  0.500000
Mo6453  Mo  0.447339  0.987213  0.482988
Te12900  Te  0.443552  0.993792  0.465975
Te12901  Te  0.454915  0.947739  0.500000
Mo6454  Mo  0.458703  0.954318  0.482988
Te12902  Te  0.454915  0.947739  0.465975
Te12903  Te  0.466279  0.954318  0.500000
Mo6455  Mo  0.470067  0.947739  0.482988
Te12904  Te  0.466279  0.954318  0.465975
Te12905  Te  0.454915  0.960897  0.500000
Mo6456  Mo  0.458703  0.967476  0.482988
Te12906  Te  0.454915  0.960897  0.465975
Te12907  Te  0.466279  0.967476  0.500000
Mo6457  Mo  0.470067  0.960897  0.482988
Te12908  Te  0.466279  0.967476  0.465975
Te12909  Te  0.454915  0.974055  0.500000
Mo6458  Mo  0.458703  0.980634  0.482988
Te12910  Te  0.454915  0.974055  0.465975
Te12911  Te  0.466279  0.980634  0.500000
Mo6459  Mo  0.470067  0.974055  0.482988
Te12912  Te  0.466279  0.980634  0.465975
Te12913  Te  0.454915  0.987213  0.500000
Mo6460  Mo  0.458703  0.993792  0.482988
Te12914  Te  0.454915  0.987213  0.465975
Te12915  Te  0.466279  0.993792  0.500000
Mo6461  Mo  0.470067  0.987213  0.482988
Te12916  Te  0.466279  0.993792  0.465975
Te12917  Te  0.477642  0.947739  0.500000
Mo6462  Mo  0.481430  0.954318  0.482988
Te12918  Te  0.477642  0.947739  0.465975
Te12919  Te  0.489006  0.954318  0.500000
Mo6463  Mo  0.492794  0.947739  0.482988
Te12920  Te  0.489006  0.954318  0.465975
Te12921  Te  0.477642  0.960897  0.500000
Mo6464  Mo  0.481430  0.967476  0.482988
Te12922  Te  0.477642  0.960897  0.465975
Te12923  Te  0.489006  0.967476  0.500000
Mo6465  Mo  0.492794  0.960897  0.482988
Te12924  Te  0.489006  0.967476  0.465975
Te12925  Te  0.477642  0.974055  0.500000
Mo6466  Mo  0.481430  0.980634  0.482988
Te12926  Te  0.477642  0.974055  0.465975
Te12927  Te  0.489006  0.980634  0.500000
Mo6467  Mo  0.492794  0.974055  0.482988
Te12928  Te  0.489006  0.980634  0.465975
Te12929  Te  0.477642  0.987213  0.500000
Mo6468  Mo  0.481430  0.993792  0.482988
Te12930  Te  0.477642  0.987213  0.465975
Te12931  Te  0.489006  0.993792  0.500000
Mo6469  Mo  0.492794  0.987213  0.482988
Te12932  Te  0.489006  0.993792  0.465975
Te12933  Te  0.500370  0.947739  0.500000
Mo6470  Mo  0.504158  0.954318  0.482988
Te12934  Te  0.500370  0.947739  0.465975
Te12935  Te  0.511733  0.954318  0.500000
Mo6471  Mo  0.515521  0.947739  0.482988
Te12936  Te  0.511733  0.954318  0.465975
Te12937  Te  0.500370  0.960897  0.500000
Mo6472  Mo  0.504158  0.967476  0.482988
Te12938  Te  0.500370  0.960897  0.465975
Te12939  Te  0.511733  0.967476  0.500000
Mo6473  Mo  0.515521  0.960897  0.482988
Te12940  Te  0.511733  0.967476  0.465975
Te12941  Te  0.500370  0.974055  0.500000
Mo6474  Mo  0.504158  0.980634  0.482988
Te12942  Te  0.500370  0.974055  0.465975
Te12943  Te  0.511733  0.980634  0.500000
Mo6475  Mo  0.515521  0.974055  0.482988
Te12944  Te  0.511733  0.980634  0.465975
Te12945  Te  0.500370  0.987213  0.500000
Mo6476  Mo  0.504158  0.993792  0.482988
Te12946  Te  0.500370  0.987213  0.465975
Te12947  Te  0.511733  0.993792  0.500000
Mo6477  Mo  0.515521  0.987213  0.482988
Te12948  Te  0.511733  0.993792  0.465975
Te12949  Te  0.523097  0.947739  0.500000
Mo6478  Mo  0.526885  0.954318  0.482988
Te12950  Te  0.523097  0.947739  0.465975
Te12951  Te  0.534461  0.954318  0.500000
Mo6479  Mo  0.538249  0.947739  0.482988
Te12952  Te  0.534461  0.954318  0.465975
Te12953  Te  0.523097  0.960897  0.500000
Mo6480  Mo  0.526885  0.967476  0.482988
Te12954  Te  0.523097  0.960897  0.465975
Te12955  Te  0.534461  0.967476  0.500000
Mo6481  Mo  0.538249  0.960897  0.482988
Te12956  Te  0.534461  0.967476  0.465975
Te12957  Te  0.523097  0.974055  0.500000
Mo6482  Mo  0.526885  0.980634  0.482988
Te12958  Te  0.523097  0.974055  0.465975
Te12959  Te  0.534461  0.980634  0.500000
Mo6483  Mo  0.538249  0.974055  0.482988
Te12960  Te  0.534461  0.980634  0.465975
Te12961  Te  0.523097  0.987213  0.500000
Mo6484  Mo  0.526885  0.993792  0.482988
Te12962  Te  0.523097  0.987213  0.465975
Te12963  Te  0.534461  0.993792  0.500000
Mo6485  Mo  0.538249  0.987213  0.482988
Te12964  Te  0.534461  0.993792  0.465975
Te12965  Te  0.545824  0.947739  0.500000
Mo6486  Mo  0.549612  0.954318  0.482988
Te12966  Te  0.545824  0.947739  0.465975
Te12967  Te  0.557188  0.954318  0.500000
Mo6487  Mo  0.560976  0.947739  0.482988
Te12968  Te  0.557188  0.954318  0.465975
Te12969  Te  0.545824  0.960897  0.500000
Mo6488  Mo  0.549612  0.967476  0.482988
Te12970  Te  0.545824  0.960897  0.465975
Te12971  Te  0.557188  0.967476  0.500000
Mo6489  Mo  0.560976  0.960897  0.482988
Te12972  Te  0.557188  0.967476  0.465975
Te12973  Te  0.545824  0.974055  0.500000
Mo6490  Mo  0.549612  0.980634  0.482988
Te12974  Te  0.545824  0.974055  0.465975
Te12975  Te  0.557188  0.980634  0.500000
Mo6491  Mo  0.560976  0.974055  0.482988
Te12976  Te  0.557188  0.980634  0.465975
Te12977  Te  0.545824  0.987213  0.500000
Mo6492  Mo  0.549612  0.993792  0.482988
Te12978  Te  0.545824  0.987213  0.465975
Te12979  Te  0.557188  0.993792  0.500000
Mo6493  Mo  0.560976  0.987213  0.482988
Te12980  Te  0.557188  0.993792  0.465975
Te12981  Te  0.568552  0.947739  0.500000
Mo6494  Mo  0.572339  0.954318  0.482988
Te12982  Te  0.568552  0.947739  0.465975
Te12983  Te  0.579915  0.954318  0.500000
Mo6495  Mo  0.583703  0.947739  0.482988
Te12984  Te  0.579915  0.954318  0.465975
Te12985  Te  0.568552  0.960897  0.500000
Mo6496  Mo  0.572339  0.967476  0.482988
Te12986  Te  0.568552  0.960897  0.465975
Te12987  Te  0.579915  0.967476  0.500000
Mo6497  Mo  0.583703  0.960897  0.482988
Te12988  Te  0.579915  0.967476  0.465975
Te12989  Te  0.568552  0.974055  0.500000
Mo6498  Mo  0.572339  0.980634  0.482988
Te12990  Te  0.568552  0.974055  0.465975
Te12991  Te  0.579915  0.980634  0.500000
Mo6499  Mo  0.583703  0.974055  0.482988
Te12992  Te  0.579915  0.980634  0.465975
Te12993  Te  0.568552  0.987213  0.500000
Mo6500  Mo  0.572339  0.993792  0.482988
Te12994  Te  0.568552  0.987213  0.465975
Te12995  Te  0.579915  0.993792  0.500000
Mo6501  Mo  0.583703  0.987213  0.482988
Te12996  Te  0.579915  0.993792  0.465975
Te12997  Te  0.591279  0.947739  0.500000
Mo6502  Mo  0.595067  0.954318  0.482988
Te12998  Te  0.591279  0.947739  0.465975
Te12999  Te  0.602642  0.954318  0.500000
Mo6503  Mo  0.606430  0.947739  0.482988
Te13000  Te  0.602642  0.954318  0.465975
Te13001  Te  0.591279  0.960897  0.500000
Mo6504  Mo  0.595067  0.967476  0.482988
Te13002  Te  0.591279  0.960897  0.465975
Te13003  Te  0.602642  0.967476  0.500000
Mo6505  Mo  0.606430  0.960897  0.482988
Te13004  Te  0.602642  0.967476  0.465975
Te13005  Te  0.591279  0.974055  0.500000
Mo6506  Mo  0.595067  0.980634  0.482988
Te13006  Te  0.591279  0.974055  0.465975
Te13007  Te  0.602642  0.980634  0.500000
Mo6507  Mo  0.606430  0.974055  0.482988
Te13008  Te  0.602642  0.980634  0.465975
Te13009  Te  0.591279  0.987213  0.500000
Mo6508  Mo  0.595067  0.993792  0.482988
Te13010  Te  0.591279  0.987213  0.465975
Te13011  Te  0.602642  0.993792  0.500000
Mo6509  Mo  0.606430  0.987213  0.482988
Te13012  Te  0.602642  0.993792  0.465975
Te13013  Te  0.614006  0.947739  0.500000
Mo6510  Mo  0.617794  0.954318  0.482988
Te13014  Te  0.614006  0.947739  0.465975
Te13015  Te  0.625370  0.954318  0.500000
Mo6511  Mo  0.629158  0.947739  0.482988
Te13016  Te  0.625370  0.954318  0.465975
Te13017  Te  0.614006  0.960897  0.500000
Mo6512  Mo  0.617794  0.967476  0.482988
Te13018  Te  0.614006  0.960897  0.465975
Te13019  Te  0.625370  0.967476  0.500000
Mo6513  Mo  0.629158  0.960897  0.482988
Te13020  Te  0.625370  0.967476  0.465975
Te13021  Te  0.614006  0.974055  0.500000
Mo6514  Mo  0.617794  0.980634  0.482988
Te13022  Te  0.614006  0.974055  0.465975
Te13023  Te  0.625370  0.980634  0.500000
Mo6515  Mo  0.629158  0.974055  0.482988
Te13024  Te  0.625370  0.980634  0.465975
Te13025  Te  0.614006  0.987213  0.500000
Mo6516  Mo  0.617794  0.993792  0.482988
Te13026  Te  0.614006  0.987213  0.465975
Te13027  Te  0.625370  0.993792  0.500000
Mo6517  Mo  0.629158  0.987213  0.482988
Te13028  Te  0.625370  0.993792  0.465975
Te13029  Te  0.636733  0.947739  0.500000
Mo6518  Mo  0.640521  0.954318  0.482988
Te13030  Te  0.636733  0.947739  0.465975
Te13031  Te  0.648097  0.954318  0.500000
Mo6519  Mo  0.651885  0.947739  0.482988
Te13032  Te  0.648097  0.954318  0.465975
Te13033  Te  0.636733  0.960897  0.500000
Mo6520  Mo  0.640521  0.967476  0.482988
Te13034  Te  0.636733  0.960897  0.465975
Te13035  Te  0.648097  0.967476  0.500000
Mo6521  Mo  0.651885  0.960897  0.482988
Te13036  Te  0.648097  0.967476  0.465975
Te13037  Te  0.636733  0.974055  0.500000
Mo6522  Mo  0.640521  0.980634  0.482988
Te13038  Te  0.636733  0.974055  0.465975
Te13039  Te  0.648097  0.980634  0.500000
Mo6523  Mo  0.651885  0.974055  0.482988
Te13040  Te  0.648097  0.980634  0.465975
Te13041  Te  0.636733  0.987213  0.500000
Mo6524  Mo  0.640521  0.993792  0.482988
Te13042  Te  0.636733  0.987213  0.465975
Te13043  Te  0.648097  0.993792  0.500000
Mo6525  Mo  0.651885  0.987213  0.482988
Te13044  Te  0.648097  0.993792  0.465975
Te13045  Te  0.659461  0.947739  0.500000
Mo6526  Mo  0.663248  0.954318  0.482988
Te13046  Te  0.659461  0.947739  0.465975
Te13047  Te  0.670824  0.954318  0.500000
Mo6527  Mo  0.674612  0.947739  0.482988
Te13048  Te  0.670824  0.954318  0.465975
Te13049  Te  0.659461  0.960897  0.500000
Mo6528  Mo  0.663248  0.967476  0.482988
Te13050  Te  0.659461  0.960897  0.465975
Te13051  Te  0.670824  0.967476  0.500000
Mo6529  Mo  0.674612  0.960897  0.482988
Te13052  Te  0.670824  0.967476  0.465975
Te13053  Te  0.659461  0.974055  0.500000
Mo6530  Mo  0.663248  0.980634  0.482988
Te13054  Te  0.659461  0.974055  0.465975
Te13055  Te  0.670824  0.980634  0.500000
Mo6531  Mo  0.674612  0.974055  0.482988
Te13056  Te  0.670824  0.980634  0.465975
Te13057  Te  0.659461  0.987213  0.500000
Mo6532  Mo  0.663248  0.993792  0.482988
Te13058  Te  0.659461  0.987213  0.465975
Te13059  Te  0.670824  0.993792  0.500000
Mo6533  Mo  0.674612  0.987213  0.482988
Te13060  Te  0.670824  0.993792  0.465975
Te13061  Te  0.682188  0.947739  0.500000
Mo6534  Mo  0.685976  0.954318  0.482988
Te13062  Te  0.682188  0.947739  0.465975
Te13063  Te  0.693551  0.954318  0.500000
Mo6535  Mo  0.697339  0.947739  0.482988
Te13064  Te  0.693551  0.954318  0.465975
Te13065  Te  0.682188  0.960897  0.500000
Mo6536  Mo  0.685976  0.967476  0.482988
Te13066  Te  0.682188  0.960897  0.465975
Te13067  Te  0.693551  0.967476  0.500000
Mo6537  Mo  0.697339  0.960897  0.482988
Te13068  Te  0.693551  0.967476  0.465975
Te13069  Te  0.682188  0.974055  0.500000
Mo6538  Mo  0.685976  0.980634  0.482988
Te13070  Te  0.682188  0.974055  0.465975
Te13071  Te  0.693551  0.980634  0.500000
Mo6539  Mo  0.697339  0.974055  0.482988
Te13072  Te  0.693551  0.980634  0.465975
Te13073  Te  0.682188  0.987213  0.500000
Mo6540  Mo  0.685976  0.993792  0.482988
Te13074  Te  0.682188  0.987213  0.465975
Te13075  Te  0.693551  0.993792  0.500000
Mo6541  Mo  0.697339  0.987213  0.482988
Te13076  Te  0.693551  0.993792  0.465975
Te13077  Te  0.704915  0.947739  0.500000
Mo6542  Mo  0.708703  0.954318  0.482988
Te13078  Te  0.704915  0.947739  0.465975
Te13079  Te  0.716279  0.954318  0.500000
Mo6543  Mo  0.720067  0.947739  0.482988
Te13080  Te  0.716279  0.954318  0.465975
Te13081  Te  0.704915  0.960897  0.500000
Mo6544  Mo  0.708703  0.967476  0.482988
Te13082  Te  0.704915  0.960897  0.465975
Te13083  Te  0.716279  0.967476  0.500000
Mo6545  Mo  0.720067  0.960897  0.482988
Te13084  Te  0.716279  0.967476  0.465975
Te13085  Te  0.704915  0.974055  0.500000
Mo6546  Mo  0.708703  0.980634  0.482988
Te13086  Te  0.704915  0.974055  0.465975
Te13087  Te  0.716279  0.980634  0.500000
Mo6547  Mo  0.720067  0.974055  0.482988
Te13088  Te  0.716279  0.980634  0.465975
Te13089  Te  0.704915  0.987213  0.500000
Mo6548  Mo  0.708703  0.993792  0.482988
Te13090  Te  0.704915  0.987213  0.465975
Te13091  Te  0.716279  0.993792  0.500000
Mo6549  Mo  0.720067  0.987213  0.482988
Te13092  Te  0.716279  0.993792  0.465975
Te13093  Te  0.727642  0.947739  0.500000
Mo6550  Mo  0.731430  0.954318  0.482988
Te13094  Te  0.727642  0.947739  0.465975
Te13095  Te  0.739006  0.954318  0.500000
Mo6551  Mo  0.742794  0.947739  0.482988
Te13096  Te  0.739006  0.954318  0.465975
Te13097  Te  0.727642  0.960897  0.500000
Mo6552  Mo  0.731430  0.967476  0.482988
Te13098  Te  0.727642  0.960897  0.465975
Te13099  Te  0.739006  0.967476  0.500000
Mo6553  Mo  0.742794  0.960897  0.482988
Te13100  Te  0.739006  0.967476  0.465975
Te13101  Te  0.727642  0.974055  0.500000
Mo6554  Mo  0.731430  0.980634  0.482988
Te13102  Te  0.727642  0.974055  0.465975
Te13103  Te  0.739006  0.980634  0.500000
Mo6555  Mo  0.742794  0.974055  0.482988
Te13104  Te  0.739006  0.980634  0.465975
Te13105  Te  0.727642  0.987213  0.500000
Mo6556  Mo  0.731430  0.993792  0.482988
Te13106  Te  0.727642  0.987213  0.465975
Te13107  Te  0.739006  0.993792  0.500000
Mo6557  Mo  0.742794  0.987213  0.482988
Te13108  Te  0.739006  0.993792  0.465975
Te13109  Te  0.750370  0.947739  0.500000
Mo6558  Mo  0.754158  0.954318  0.482988
Te13110  Te  0.750370  0.947739  0.465975
Te13111  Te  0.761733  0.954318  0.500000
Mo6559  Mo  0.765521  0.947739  0.482988
Te13112  Te  0.761733  0.954318  0.465975
Te13113  Te  0.750370  0.960897  0.500000
Mo6560  Mo  0.754158  0.967476  0.482988
Te13114  Te  0.750370  0.960897  0.465975
Te13115  Te  0.761733  0.967476  0.500000
Mo6561  Mo  0.765521  0.960897  0.482988
Te13116  Te  0.761733  0.967476  0.465975
Te13117  Te  0.750370  0.974055  0.500000
Mo6562  Mo  0.754158  0.980634  0.482988
Te13118  Te  0.750370  0.974055  0.465975
Te13119  Te  0.761733  0.980634  0.500000
Mo6563  Mo  0.765521  0.974055  0.482988
Te13120  Te  0.761733  0.980634  0.465975
Te13121  Te  0.750370  0.987213  0.500000
Mo6564  Mo  0.754158  0.993792  0.482988
Te13122  Te  0.750370  0.987213  0.465975
Te13123  Te  0.761733  0.993792  0.500000
Mo6565  Mo  0.765521  0.987213  0.482988
Te13124  Te  0.761733  0.993792  0.465975
Te13125  Te  0.773097  0.947739  0.500000
Mo6566  Mo  0.776885  0.954318  0.482988
Te13126  Te  0.773097  0.947739  0.465975
Te13127  Te  0.784461  0.954318  0.500000
Mo6567  Mo  0.788248  0.947739  0.482988
Te13128  Te  0.784461  0.954318  0.465975
Te13129  Te  0.773097  0.960897  0.500000
Mo6568  Mo  0.776885  0.967476  0.482988
Te13130  Te  0.773097  0.960897  0.465975
Te13131  Te  0.784461  0.967476  0.500000
Mo6569  Mo  0.788248  0.960897  0.482988
Te13132  Te  0.784461  0.967476  0.465975
Te13133  Te  0.773097  0.974055  0.500000
Mo6570  Mo  0.776885  0.980634  0.482988
Te13134  Te  0.773097  0.974055  0.465975
Te13135  Te  0.784461  0.980634  0.500000
Mo6571  Mo  0.788248  0.974055  0.482988
Te13136  Te  0.784461  0.980634  0.465975
Te13137  Te  0.773097  0.987213  0.500000
Mo6572  Mo  0.776885  0.993792  0.482988
Te13138  Te  0.773097  0.987213  0.465975
Te13139  Te  0.784461  0.993792  0.500000
Mo6573  Mo  0.788248  0.987213  0.482988
Te13140  Te  0.784461  0.993792  0.465975
Te13141  Te  0.795824  0.947739  0.500000
Mo6574  Mo  0.799612  0.954318  0.482988
Te13142  Te  0.795824  0.947739  0.465975
Te13143  Te  0.807188  0.954318  0.500000
Mo6575  Mo  0.810976  0.947739  0.482988
Te13144  Te  0.807188  0.954318  0.465975
Te13145  Te  0.795824  0.960897  0.500000
Mo6576  Mo  0.799612  0.967476  0.482988
Te13146  Te  0.795824  0.960897  0.465975
Te13147  Te  0.807188  0.967476  0.500000
Mo6577  Mo  0.810976  0.960897  0.482988
Te13148  Te  0.807188  0.967476  0.465975
Te13149  Te  0.795824  0.974055  0.500000
Mo6578  Mo  0.799612  0.980634  0.482988
Te13150  Te  0.795824  0.974055  0.465975
Te13151  Te  0.807188  0.980634  0.500000
Mo6579  Mo  0.810976  0.974055  0.482988
Te13152  Te  0.807188  0.980634  0.465975
Te13153  Te  0.795824  0.987213  0.500000
Mo6580  Mo  0.799612  0.993792  0.482988
Te13154  Te  0.795824  0.987213  0.465975
Te13155  Te  0.807188  0.993792  0.500000
Mo6581  Mo  0.810976  0.987213  0.482988
Te13156  Te  0.807188  0.993792  0.465975
Te13157  Te  0.818551  0.947739  0.500000
Mo6582  Mo  0.822339  0.954318  0.482988
Te13158  Te  0.818551  0.947739  0.465975
Te13159  Te  0.829915  0.954318  0.500000
Mo6583  Mo  0.833703  0.947739  0.482988
Te13160  Te  0.829915  0.954318  0.465975
Te13161  Te  0.818551  0.960897  0.500000
Mo6584  Mo  0.822339  0.967476  0.482988
Te13162  Te  0.818551  0.960897  0.465975
Te13163  Te  0.829915  0.967476  0.500000
Mo6585  Mo  0.833703  0.960897  0.482988
Te13164  Te  0.829915  0.967476  0.465975
Te13165  Te  0.818551  0.974055  0.500000
Mo6586  Mo  0.822339  0.980634  0.482988
Te13166  Te  0.818551  0.974055  0.465975
Te13167  Te  0.829915  0.980634  0.500000
Mo6587  Mo  0.833703  0.974055  0.482988
Te13168  Te  0.829915  0.980634  0.465975
Te13169  Te  0.818551  0.987213  0.500000
Mo6588  Mo  0.822339  0.993792  0.482988
Te13170  Te  0.818551  0.987213  0.465975
Te13171  Te  0.829915  0.993792  0.500000
Mo6589  Mo  0.833703  0.987213  0.482988
Te13172  Te  0.829915  0.993792  0.465975
Te13173  Te  0.841279  0.947739  0.500000
Mo6590  Mo  0.845067  0.954318  0.482988
Te13174  Te  0.841279  0.947739  0.465975
Te13175  Te  0.852642  0.954318  0.500000
Mo6591  Mo  0.856430  0.947739  0.482988
Te13176  Te  0.852642  0.954318  0.465975
Te13177  Te  0.841279  0.960897  0.500000
Mo6592  Mo  0.845067  0.967476  0.482988
Te13178  Te  0.841279  0.960897  0.465975
Te13179  Te  0.852642  0.967476  0.500000
Mo6593  Mo  0.856430  0.960897  0.482988
Te13180  Te  0.852642  0.967476  0.465975
Te13181  Te  0.841279  0.974055  0.500000
Mo6594  Mo  0.845067  0.980634  0.482988
Te13182  Te  0.841279  0.974055  0.465975
Te13183  Te  0.852642  0.980634  0.500000
Mo6595  Mo  0.856430  0.974055  0.482988
Te13184  Te  0.852642  0.980634  0.465975
Te13185  Te  0.841279  0.987213  0.500000
Mo6596  Mo  0.845067  0.993792  0.482988
Te13186  Te  0.841279  0.987213  0.465975
Te13187  Te  0.852642  0.993792  0.500000
Mo6597  Mo  0.856430  0.987213  0.482988
Te13188  Te  0.852642  0.993792  0.465975
Te13189  Te  0.864006  0.947739  0.500000
Mo6598  Mo  0.867794  0.954318  0.482988
Te13190  Te  0.864006  0.947739  0.465975
Te13191  Te  0.875370  0.954318  0.500000
Mo6599  Mo  0.879158  0.947739  0.482988
Te13192  Te  0.875370  0.954318  0.465975
Te13193  Te  0.864006  0.960897  0.500000
Mo6600  Mo  0.867794  0.967476  0.482988
Te13194  Te  0.864006  0.960897  0.465975
Te13195  Te  0.875370  0.967476  0.500000
Mo6601  Mo  0.879158  0.960897  0.482988
Te13196  Te  0.875370  0.967476  0.465975
Te13197  Te  0.864006  0.974055  0.500000
Mo6602  Mo  0.867794  0.980634  0.482988
Te13198  Te  0.864006  0.974055  0.465975
Te13199  Te  0.875370  0.980634  0.500000
Mo6603  Mo  0.879158  0.974055  0.482988
Te13200  Te  0.875370  0.980634  0.465975
Te13201  Te  0.864006  0.987213  0.500000
Mo6604  Mo  0.867794  0.993792  0.482988
Te13202  Te  0.864006  0.987213  0.465975
Te13203  Te  0.875370  0.993792  0.500000
Mo6605  Mo  0.879158  0.987213  0.482988
Te13204  Te  0.875370  0.993792  0.465975
Te13205  Te  0.886733  0.947739  0.500000
Mo6606  Mo  0.890521  0.954318  0.482988
Te13206  Te  0.886733  0.947739  0.465975
Te13207  Te  0.898097  0.954318  0.500000
Mo6607  Mo  0.901885  0.947739  0.482988
Te13208  Te  0.898097  0.954318  0.465975
Te13209  Te  0.886733  0.960897  0.500000
Mo6608  Mo  0.890521  0.967476  0.482988
Te13210  Te  0.886733  0.960897  0.465975
Te13211  Te  0.898097  0.967476  0.500000
Mo6609  Mo  0.901885  0.960897  0.482988
Te13212  Te  0.898097  0.967476  0.465975
Te13213  Te  0.886733  0.974055  0.500000
Mo6610  Mo  0.890521  0.980634  0.482988
Te13214  Te  0.886733  0.974055  0.465975
Te13215  Te  0.898097  0.980634  0.500000
Mo6611  Mo  0.901885  0.974055  0.482988
Te13216  Te  0.898097  0.980634  0.465975
Te13217  Te  0.886733  0.987213  0.500000
Mo6612  Mo  0.890521  0.993792  0.482988
Te13218  Te  0.886733  0.987213  0.465975
Te13219  Te  0.898097  0.993792  0.500000
Mo6613  Mo  0.901885  0.987213  0.482988
Te13220  Te  0.898097  0.993792  0.465975
Te13221  Te  0.909461  0.947739  0.500000
Mo6614  Mo  0.913248  0.954318  0.482988
Te13222  Te  0.909461  0.947739  0.465975
Te13223  Te  0.920824  0.954318  0.500000
Mo6615  Mo  0.924612  0.947739  0.482988
Te13224  Te  0.920824  0.954318  0.465975
Te13225  Te  0.909461  0.960897  0.500000
Mo6616  Mo  0.913248  0.967476  0.482988
Te13226  Te  0.909461  0.960897  0.465975
Te13227  Te  0.920824  0.967476  0.500000
Mo6617  Mo  0.924612  0.960897  0.482988
Te13228  Te  0.920824  0.967476  0.465975
Te13229  Te  0.909461  0.974055  0.500000
Mo6618  Mo  0.913248  0.980634  0.482988
Te13230  Te  0.909461  0.974055  0.465975
Te13231  Te  0.920824  0.980634  0.500000
Mo6619  Mo  0.924612  0.974055  0.482988
Te13232  Te  0.920824  0.980634  0.465975
Te13233  Te  0.909461  0.987213  0.500000
Mo6620  Mo  0.913248  0.993792  0.482988
Te13234  Te  0.909461  0.987213  0.465975
Te13235  Te  0.920824  0.993792  0.500000
Mo6621  Mo  0.924612  0.987213  0.482988
Te13236  Te  0.920824  0.993792  0.465975
Te13237  Te  0.932188  0.947739  0.500000
Mo6622  Mo  0.935976  0.954318  0.482988
Te13238  Te  0.932188  0.947739  0.465975
Te13239  Te  0.943552  0.954318  0.500000
Mo6623  Mo  0.947339  0.947739  0.482988
Te13240  Te  0.943552  0.954318  0.465975
Te13241  Te  0.932188  0.960897  0.500000
Mo6624  Mo  0.935976  0.967476  0.482988
Te13242  Te  0.932188  0.960897  0.465975
Te13243  Te  0.943552  0.967476  0.500000
Mo6625  Mo  0.947339  0.960897  0.482988
Te13244  Te  0.943552  0.967476  0.465975
Te13245  Te  0.932188  0.974055  0.500000
Mo6626  Mo  0.935976  0.980634  0.482988
Te13246  Te  0.932188  0.974055  0.465975
Te13247  Te  0.943552  0.980634  0.500000
Mo6627  Mo  0.947339  0.974055  0.482988
Te13248  Te  0.943552  0.980634  0.465975
Te13249  Te  0.932188  0.987213  0.500000
Mo6628  Mo  0.935976  0.993792  0.482988
Te13250  Te  0.932188  0.987213  0.465975
Te13251  Te  0.943552  0.993792  0.500000
Mo6629  Mo  0.947339  0.987213  0.482988
Te13252  Te  0.943552  0.993792  0.465975
Te13253  Te  0.954915  0.947739  0.500000
Mo6630  Mo  0.958703  0.954318  0.482988
Te13254  Te  0.954915  0.947739  0.465975
Te13255  Te  0.966279  0.954318  0.500000
Mo6631  Mo  0.970067  0.947739  0.482988
Te13256  Te  0.966279  0.954318  0.465975
Te13257  Te  0.954915  0.960897  0.500000
Mo6632  Mo  0.958703  0.967476  0.482988
Te13258  Te  0.954915  0.960897  0.465975
Te13259  Te  0.966279  0.967476  0.500000
Mo6633  Mo  0.970067  0.960897  0.482988
Te13260  Te  0.966279  0.967476  0.465975
Te13261  Te  0.954915  0.974055  0.500000
Mo6634  Mo  0.958703  0.980634  0.482988
Te13262  Te  0.954915  0.974055  0.465975
Te13263  Te  0.966279  0.980634  0.500000
Mo6635  Mo  0.970067  0.974055  0.482988
Te13264  Te  0.966279  0.980634  0.465975
Te13265  Te  0.954915  0.987213  0.500000
Mo6636  Mo  0.958703  0.993792  0.482988
Te13266  Te  0.954915  0.987213  0.465975
Te13267  Te  0.966279  0.993792  0.500000
Mo6637  Mo  0.970067  0.987213  0.482988
Te13268  Te  0.966279  0.993792  0.465975
Te13269  Te  0.977642  0.947739  0.500000
Mo6638  Mo  0.981430  0.954318  0.482988
Te13270  Te  0.977642  0.947739  0.465975
Te13271  Te  0.989006  0.954318  0.500000
Mo6639  Mo  0.992794  0.947739  0.482988
Te13272  Te  0.989006  0.954318  0.465975
Te13273  Te  0.977642  0.960897  0.500000
Mo6640  Mo  0.981430  0.967476  0.482988
Te13274  Te  0.977642  0.960897  0.465975
Te13275  Te  0.989006  0.967476  0.500000
Mo6641  Mo  0.992794  0.960897  0.482988
Te13276  Te  0.989006  0.967476  0.465975
Te13277  Te  0.977642  0.974055  0.500000
Mo6642  Mo  0.981430  0.980634  0.482988
Te13278  Te  0.977642  0.974055  0.465975
Te13279  Te  0.989006  0.980634  0.500000
Mo6643  Mo  0.992794  0.974055  0.482988
Te13280  Te  0.989006  0.980634  0.465975
Te13281  Te  0.977642  0.987213  0.500000
Mo6644  Mo  0.981430  0.993792  0.482988
Te13282  Te  0.977642  0.987213  0.465975
Te13283  Te  0.989006  0.993792  0.500000
Mo6645  Mo  0.992794  0.987213  0.482988
Te13284  Te  0.989006  0.993792  0.465975
